2
Properties=species:S:1:pos:R:3:forces:R:3 energy=50137.485935682176 pbc="F F F"
Xe       0.00000000       0.00000000       0.00000000       0.00000000       0.00000000 -1220853.12500000
Xe       0.00000000       0.00000000       0.10000000       0.00000000       0.00000000 1220853.12500000
2
Properties=species:S:1:pos:R:3:forces:R:3 energy=14445.749607557176 pbc="F F F"
Xe       0.00000000       0.00000000       0.00000000       0.00000000       0.00000000 -262716.71875000
Xe       0.00000000       0.00000000       0.15959596       0.00000000       0.00000000  262716.71875000
2
Properties=species:S:1:pos:R:3:forces:R:3 energy=5414.834568494676 pbc="F F F"
Xe       0.00000000       0.00000000       0.00000000       0.00000000       0.00000000  -81511.37500000
Xe       0.00000000       0.00000000       0.21919192       0.00000000       0.00000000   81511.37500000
2
Properties=species:S:1:pos:R:3:forces:R:3 energy=2342.308933732219 pbc="F F F"
Xe       0.00000000       0.00000000       0.00000000       0.00000000       0.00000000  -30936.92187500
Xe       0.00000000       0.00000000       0.27878788       0.00000000       0.00000000   30936.92187500
2
Properties=species:S:1:pos:R:3:forces:R:3 energy=1109.1889386181992 pbc="F F F"
Xe       0.00000000       0.00000000       0.00000000       0.00000000       0.00000000  -13244.26953125
Xe       0.00000000       0.00000000       0.33838384       0.00000000       0.00000000   13244.26953125
2
Properties=species:S:1:pos:R:3:forces:R:3 energy=561.460911280785 pbc="F F F"
Xe       0.00000000       0.00000000       0.00000000       0.00000000       0.00000000   -6140.80078125
Xe       0.00000000       0.00000000       0.39797980       0.00000000       0.00000000    6140.80078125
2
Properties=species:S:1:pos:R:3:forces:R:3 energy=300.47378971459284 pbc="F F F"
Xe       0.00000000       0.00000000       0.00000000       0.00000000       0.00000000   -3021.75708008
Xe       0.00000000       0.00000000       0.45757576       0.00000000       0.00000000    3021.75708008
2
Properties=species:S:1:pos:R:3:forces:R:3 energy=169.18065314959136 pbc="F F F"
Xe       0.00000000       0.00000000       0.00000000       0.00000000       0.00000000   -1560.14562988
Xe       0.00000000       0.00000000       0.51717172       0.00000000       0.00000000    1560.14562988
2
Properties=species:S:1:pos:R:3:forces:R:3 energy=100.14717542340904 pbc="F F F"
Xe       0.00000000       0.00000000       0.00000000       0.00000000       0.00000000    -837.64355469
Xe       0.00000000       0.00000000       0.57676768       0.00000000       0.00000000     837.64355469
2
Properties=species:S:1:pos:R:3:forces:R:3 energy=62.556923595836274 pbc="F F F"
Xe       0.00000000       0.00000000       0.00000000       0.00000000       0.00000000    -463.15881348
Xe       0.00000000       0.00000000       0.63636364       0.00000000       0.00000000     463.15881348
2
Properties=species:S:1:pos:R:3:forces:R:3 energy=41.575898052090956 pbc="F F F"
Xe       0.00000000       0.00000000       0.00000000       0.00000000       0.00000000    -261.02014160
Xe       0.00000000       0.00000000       0.69595960       0.00000000       0.00000000     261.02014160
2
Properties=species:S:1:pos:R:3:forces:R:3 energy=29.676961067503644 pbc="F F F"
Xe       0.00000000       0.00000000       0.00000000       0.00000000       0.00000000    -149.21203613
Xe       0.00000000       0.00000000       0.75555556       0.00000000       0.00000000     149.21203613
2
Properties=species:S:1:pos:R:3:forces:R:3 energy=22.79884290094943 pbc="F F F"
Xe       0.00000000       0.00000000       0.00000000       0.00000000       0.00000000     -87.94330597
Xe       0.00000000       0.00000000       0.81515152       0.00000000       0.00000000      87.94330597
2
Properties=species:S:1:pos:R:3:forces:R:3 energy=18.606082946607323 pbc="F F F"
Xe       0.00000000       0.00000000       0.00000000       0.00000000       0.00000000     -56.57447433
Xe       0.00000000       0.00000000       0.87474747       0.00000000       0.00000000      56.57447433
2
Properties=species:S:1:pos:R:3:forces:R:3 energy=15.706528462571944 pbc="F F F"
Xe       0.00000000       0.00000000       0.00000000       0.00000000       0.00000000     -42.87387848
Xe       0.00000000       0.00000000       0.93434343       0.00000000       0.00000000      42.87387848
2
Properties=species:S:1:pos:R:3:forces:R:3 energy=13.322243536784894 pbc="F F F"
Xe       0.00000000       0.00000000       0.00000000       0.00000000       0.00000000     -37.98857498
Xe       0.00000000       0.00000000       0.99393939       0.00000000       0.00000000      37.98857498
2
Properties=species:S:1:pos:R:3:forces:R:3 energy=11.132568607822735 pbc="F F F"
Xe       0.00000000       0.00000000       0.00000000       0.00000000       0.00000000     -35.52954865
Xe       0.00000000       0.00000000       1.05353535       0.00000000       0.00000000      35.52954865
2
Properties=species:S:1:pos:R:3:forces:R:3 energy=9.106535114146935 pbc="F F F"
Xe       0.00000000       0.00000000       0.00000000       0.00000000       0.00000000     -32.19782257
Xe       0.00000000       0.00000000       1.11313131       0.00000000       0.00000000      32.19782257
2
Properties=species:S:1:pos:R:3:forces:R:3 energy=7.326232597100216 pbc="F F F"
Xe       0.00000000       0.00000000       0.00000000       0.00000000       0.00000000     -27.33853340
Xe       0.00000000       0.00000000       1.17272727       0.00000000       0.00000000      27.33853340
2
Properties=species:S:1:pos:R:3:forces:R:3 energy=5.861468242343411 pbc="F F F"
Xe       0.00000000       0.00000000       0.00000000       0.00000000       0.00000000     -21.80690002
Xe       0.00000000       0.00000000       1.23232323       0.00000000       0.00000000      21.80690002
2
Properties=species:S:1:pos:R:3:forces:R:3 energy=4.717543702799464 pbc="F F F"
Xe       0.00000000       0.00000000       0.00000000       0.00000000       0.00000000     -16.74061012
Xe       0.00000000       0.00000000       1.29191919       0.00000000       0.00000000      16.74061012
2
Properties=species:S:1:pos:R:3:forces:R:3 energy=3.839604533945931 pbc="F F F"
Xe       0.00000000       0.00000000       0.00000000       0.00000000       0.00000000     -12.99618149
Xe       0.00000000       0.00000000       1.35151515       0.00000000       0.00000000      12.99618149
2
Properties=species:S:1:pos:R:3:forces:R:3 energy=3.135845988969962 pbc="F F F"
Xe       0.00000000       0.00000000       0.00000000       0.00000000       0.00000000     -10.83623886
Xe       0.00000000       0.00000000       1.41111111       0.00000000       0.00000000      10.83623886
2
Properties=species:S:1:pos:R:3:forces:R:3 energy=2.537202998388075 pbc="F F F"
Xe       0.00000000       0.00000000       0.00000000       0.00000000       0.00000000      -9.23598194
Xe       0.00000000       0.00000000       1.47070707       0.00000000       0.00000000       9.23598194
2
Properties=species:S:1:pos:R:3:forces:R:3 energy=2.0401315293786286 pbc="F F F"
Xe       0.00000000       0.00000000       0.00000000       0.00000000       0.00000000      -7.42233849
Xe       0.00000000       0.00000000       1.53030303       0.00000000       0.00000000       7.42233849
2
Properties=species:S:1:pos:R:3:forces:R:3 energy=1.6508507214100545 pbc="F F F"
Xe       0.00000000       0.00000000       0.00000000       0.00000000       0.00000000      -5.68353748
Xe       0.00000000       0.00000000       1.58989899       0.00000000       0.00000000       5.68353748
2
Properties=species:S:1:pos:R:3:forces:R:3 energy=1.3563349840621957 pbc="F F F"
Xe       0.00000000       0.00000000       0.00000000       0.00000000       0.00000000      -4.25737715
Xe       0.00000000       0.00000000       1.64949495       0.00000000       0.00000000       4.25737715
2
Properties=species:S:1:pos:R:3:forces:R:3 energy=1.1368892404291522 pbc="F F F"
Xe       0.00000000       0.00000000       0.00000000       0.00000000       0.00000000      -3.15785813
Xe       0.00000000       0.00000000       1.70909091       0.00000000       0.00000000       3.15785813
2
Properties=species:S:1:pos:R:3:forces:R:3 energy=0.9744142156792153 pbc="F F F"
Xe       0.00000000       0.00000000       0.00000000       0.00000000       0.00000000      -2.33718061
Xe       0.00000000       0.00000000       1.76868687       0.00000000       0.00000000       2.33718061
2
Properties=species:S:1:pos:R:3:forces:R:3 energy=0.8536653562606361 pbc="F F F"
Xe       0.00000000       0.00000000       0.00000000       0.00000000       0.00000000      -1.75091124
Xe       0.00000000       0.00000000       1.82828283       0.00000000       0.00000000       1.75091124
2
Properties=species:S:1:pos:R:3:forces:R:3 energy=0.7617866302966151 pbc="F F F"
Xe       0.00000000       0.00000000       0.00000000       0.00000000       0.00000000      -1.36231637
Xe       0.00000000       0.00000000       1.88787879       0.00000000       0.00000000       1.36231637
2
Properties=species:S:1:pos:R:3:forces:R:3 energy=0.6881751000807044 pbc="F F F"
Xe       0.00000000       0.00000000       0.00000000       0.00000000       0.00000000      -1.12981033
Xe       0.00000000       0.00000000       1.94747475       0.00000000       0.00000000       1.12981033
2
Properties=species:S:1:pos:R:3:forces:R:3 energy=0.6251477566677994 pbc="F F F"
Xe       0.00000000       0.00000000       0.00000000       0.00000000       0.00000000      -0.99646252
Xe       0.00000000       0.00000000       2.00707071       0.00000000       0.00000000       0.99646252
2
Properties=species:S:1:pos:R:3:forces:R:3 energy=0.5687063102390748 pbc="F F F"
Xe       0.00000000       0.00000000       0.00000000       0.00000000       0.00000000      -0.89891642
Xe       0.00000000       0.00000000       2.06666667       0.00000000       0.00000000       0.89891642
2
Properties=species:S:1:pos:R:3:forces:R:3 energy=0.5182339375084773 pbc="F F F"
Xe       0.00000000       0.00000000       0.00000000       0.00000000       0.00000000      -0.79087919
Xe       0.00000000       0.00000000       2.12626263       0.00000000       0.00000000       0.79087919
2
Properties=species:S:1:pos:R:3:forces:R:3 energy=0.47497423712834713 pbc="F F F"
Xe       0.00000000       0.00000000       0.00000000       0.00000000       0.00000000      -0.65678823
Xe       0.00000000       0.00000000       2.18585859       0.00000000       0.00000000       0.65678823
2
Properties=species:S:1:pos:R:3:forces:R:3 energy=0.4402839664611836 pbc="F F F"
Xe       0.00000000       0.00000000       0.00000000       0.00000000       0.00000000      -0.50624835
Xe       0.00000000       0.00000000       2.24545455       0.00000000       0.00000000       0.50624835
2
Properties=species:S:1:pos:R:3:forces:R:3 energy=0.4145589347865471 pbc="F F F"
Xe       0.00000000       0.00000000       0.00000000       0.00000000       0.00000000      -0.35944393
Xe       0.00000000       0.00000000       2.30505051       0.00000000       0.00000000       0.35944393
2
Properties=species:S:1:pos:R:3:forces:R:3 energy=0.39697396536693785 pbc="F F F"
Xe       0.00000000       0.00000000       0.00000000       0.00000000       0.00000000      -0.23598194
Xe       0.00000000       0.00000000       2.36464646       0.00000000       0.00000000       0.23598194
2
Properties=species:S:1:pos:R:3:forces:R:3 energy=0.3856670110276849 pbc="F F F"
Xe       0.00000000       0.00000000       0.00000000       0.00000000       0.00000000      -0.15085600
Xe       0.00000000       0.00000000       2.42424242       0.00000000       0.00000000       0.15085600
2
Properties=species:S:1:pos:R:3:forces:R:3 energy=0.37803877591084273 pbc="F F F"
Xe       0.00000000       0.00000000       0.00000000       0.00000000       0.00000000      -0.11355593
Xe       0.00000000       0.00000000       2.48383838       0.00000000       0.00000000       0.11355593
2
Properties=species:S:1:pos:R:3:forces:R:3 energy=0.371125222330282 pbc="F F F"
Xe       0.00000000       0.00000000       0.00000000       0.00000000       0.00000000      -0.12664343
Xe       0.00000000       0.00000000       2.54343434       0.00000000       0.00000000       0.12664343
2
Properties=species:S:1:pos:R:3:forces:R:3 energy=0.36204926110544217 pbc="F F F"
Xe       0.00000000       0.00000000       0.00000000       0.00000000       0.00000000      -0.18451440
Xe       0.00000000       0.00000000       2.60303030       0.00000000       0.00000000       0.18451440
2
Properties=species:S:1:pos:R:3:forces:R:3 energy=0.3484924126189054 pbc="F F F"
Xe       0.00000000       0.00000000       0.00000000       0.00000000       0.00000000      -0.27446973
Xe       0.00000000       0.00000000       2.66262626       0.00000000       0.00000000       0.27446973
2
Properties=species:S:1:pos:R:3:forces:R:3 energy=0.32902222404963816 pbc="F F F"
Xe       0.00000000       0.00000000       0.00000000       0.00000000       0.00000000      -0.38017234
Xe       0.00000000       0.00000000       2.72222222       0.00000000       0.00000000       0.38017234
2
Properties=species:S:1:pos:R:3:forces:R:3 energy=0.3031848074599042 pbc="F F F"
Xe       0.00000000       0.00000000       0.00000000       0.00000000       0.00000000      -0.48570716
Xe       0.00000000       0.00000000       2.78181818       0.00000000       0.00000000       0.48570716
2
Properties=species:S:1:pos:R:3:forces:R:3 energy=0.27138731469090227 pbc="F F F"
Xe       0.00000000       0.00000000       0.00000000       0.00000000       0.00000000      -0.57842451
Xe       0.00000000       0.00000000       2.84141414       0.00000000       0.00000000       0.57842451
2
Properties=species:S:1:pos:R:3:forces:R:3 energy=0.23466434042424678 pbc="F F F"
Xe       0.00000000       0.00000000       0.00000000       0.00000000       0.00000000      -0.64998615
Xe       0.00000000       0.00000000       2.90101010       0.00000000       0.00000000       0.64998615
2
Properties=species:S:1:pos:R:3:forces:R:3 energy=0.19442200999359838 pbc="F F F"
Xe       0.00000000       0.00000000       0.00000000       0.00000000       0.00000000      -0.69611526
Xe       0.00000000       0.00000000       2.96060606       0.00000000       0.00000000       0.69611526
2
Properties=species:S:1:pos:R:3:forces:R:3 energy=0.15221951029257885 pbc="F F F"
Xe       0.00000000       0.00000000       0.00000000       0.00000000       0.00000000      -0.71581054
Xe       0.00000000       0.00000000       3.02020202       0.00000000       0.00000000       0.71581054
2
Properties=species:S:1:pos:R:3:forces:R:3 energy=0.10960098285572288 pbc="F F F"
Xe       0.00000000       0.00000000       0.00000000       0.00000000       0.00000000      -0.71048206
Xe       0.00000000       0.00000000       3.07979798       0.00000000       0.00000000       0.71048206
2
Properties=species:S:1:pos:R:3:forces:R:3 energy=0.06797436474668345 pbc="F F F"
Xe       0.00000000       0.00000000       0.00000000       0.00000000       0.00000000      -0.68310922
Xe       0.00000000       0.00000000       3.13939394       0.00000000       0.00000000       0.68310922
2
Properties=species:S:1:pos:R:3:forces:R:3 energy=0.0285427809752336 pbc="F F F"
Xe       0.00000000       0.00000000       0.00000000       0.00000000       0.00000000      -0.63747734
Xe       0.00000000       0.00000000       3.19898990       0.00000000       0.00000000       0.63747734
2
Properties=species:S:1:pos:R:3:forces:R:3 energy=-0.007725549158727425 pbc="F F F"
Xe       0.00000000       0.00000000       0.00000000       0.00000000       0.00000000      -0.57762814
Xe       0.00000000       0.00000000       3.25858586       0.00000000       0.00000000       0.57762814
2
Properties=species:S:1:pos:R:3:forces:R:3 energy=-0.040103252067062924 pbc="F F F"
Xe       0.00000000       0.00000000       0.00000000       0.00000000       0.00000000      -0.50757390
Xe       0.00000000       0.00000000       3.31818182       0.00000000       0.00000000       0.50757390
2
Properties=species:S:1:pos:R:3:forces:R:3 energy=-0.06809828795242867 pbc="F F F"
Xe       0.00000000       0.00000000       0.00000000       0.00000000       0.00000000      -0.43118683
Xe       0.00000000       0.00000000       3.37777778       0.00000000       0.00000000       0.43118683
2
Properties=species:S:1:pos:R:3:forces:R:3 energy=-0.09144377521758446 pbc="F F F"
Xe       0.00000000       0.00000000       0.00000000       0.00000000       0.00000000      -0.35209772
Xe       0.00000000       0.00000000       3.43737374       0.00000000       0.00000000       0.35209772
2
Properties=species:S:1:pos:R:3:forces:R:3 energy=-0.11007746150549563 pbc="F F F"
Xe       0.00000000       0.00000000       0.00000000       0.00000000       0.00000000      -0.27358112
Xe       0.00000000       0.00000000       3.49696970       0.00000000       0.00000000       0.27358112
2
Properties=species:S:1:pos:R:3:forces:R:3 energy=-0.12411953406068604 pbc="F F F"
Xe       0.00000000       0.00000000       0.00000000       0.00000000       0.00000000      -0.19842085
Xe       0.00000000       0.00000000       3.55656566       0.00000000       0.00000000       0.19842085
2
Properties=species:S:1:pos:R:3:forces:R:3 energy=-0.13383880229161743 pbc="F F F"
Xe       0.00000000       0.00000000       0.00000000       0.00000000       0.00000000      -0.12883209
Xe       0.00000000       0.00000000       3.61616162       0.00000000       0.00000000       0.12883209
2
Properties=species:S:1:pos:R:3:forces:R:3 energy=-0.1396184929161318 pbc="F F F"
Xe       0.00000000       0.00000000       0.00000000       0.00000000       0.00000000      -0.06644781
Xe       0.00000000       0.00000000       3.67575758       0.00000000       0.00000000       0.06644781
2
Properties=species:S:1:pos:R:3:forces:R:3 energy=-0.14192364586678569 pbc="F F F"
Xe       0.00000000       0.00000000       0.00000000       0.00000000       0.00000000      -0.01235040
Xe       0.00000000       0.00000000       3.73535354       0.00000000       0.00000000       0.01235040
2
Properties=species:S:1:pos:R:3:forces:R:3 energy=-0.14126719179739247 pbc="F F F"
Xe       0.00000000       0.00000000       0.00000000       0.00000000       0.00000000       0.03287429
Xe       0.00000000       0.00000000       3.79494949       0.00000000       0.00000000      -0.03287429
2
Properties=species:S:1:pos:R:3:forces:R:3 energy=-0.13818442750883353 pbc="F F F"
Xe       0.00000000       0.00000000       0.00000000       0.00000000       0.00000000       0.06908853
Xe       0.00000000       0.00000000       3.85454545       0.00000000       0.00000000      -0.06908853
2
Properties=species:S:1:pos:R:3:forces:R:3 energy=-0.1332068144869715 pbc="F F F"
Xe       0.00000000       0.00000000       0.00000000       0.00000000       0.00000000       0.09653448
Xe       0.00000000       0.00000000       3.91414141       0.00000000       0.00000000      -0.09653448
2
Properties=species:S:1:pos:R:3:forces:R:3 energy=-0.12684195039706686 pbc="F F F"
Xe       0.00000000       0.00000000       0.00000000       0.00000000       0.00000000       0.11575444
Xe       0.00000000       0.00000000       3.97373737       0.00000000       0.00000000      -0.11575444
2
Properties=species:S:1:pos:R:3:forces:R:3 energy=-0.11955840063963227 pbc="F F F"
Xe       0.00000000       0.00000000       0.00000000       0.00000000       0.00000000       0.12750098
Xe       0.00000000       0.00000000       4.03333333       0.00000000       0.00000000      -0.12750098
2
Properties=species:S:1:pos:R:3:forces:R:3 energy=-0.11177576908034031 pbc="F F F"
Xe       0.00000000       0.00000000       0.00000000       0.00000000       0.00000000       0.13265765
Xe       0.00000000       0.00000000       4.09292929       0.00000000       0.00000000      -0.13265765
2
Properties=species:S:1:pos:R:3:forces:R:3 energy=-0.10385857197386056 pbc="F F F"
Xe       0.00000000       0.00000000       0.00000000       0.00000000       0.00000000       0.13218419
Xe       0.00000000       0.00000000       4.15252525       0.00000000       0.00000000      -0.13218419
2
Properties=species:S:1:pos:R:3:forces:R:3 energy=-0.09611235122963283 pbc="F F F"
Xe       0.00000000       0.00000000       0.00000000       0.00000000       0.00000000       0.12709039
Xe       0.00000000       0.00000000       4.21212121       0.00000000       0.00000000      -0.12709039
2
Properties=species:S:1:pos:R:3:forces:R:3 energy=-0.0887812745109364 pbc="F F F"
Xe       0.00000000       0.00000000       0.00000000       0.00000000       0.00000000       0.11843035
Xe       0.00000000       0.00000000       4.27171717       0.00000000       0.00000000      -0.11843035
2
Properties=species:S:1:pos:R:3:forces:R:3 energy=-0.08204555610406589 pbc="F F F"
Xe       0.00000000       0.00000000       0.00000000       0.00000000       0.00000000       0.10729540
Xe       0.00000000       0.00000000       4.33131313       0.00000000       0.00000000      -0.10729540
2
Properties=species:S:1:pos:R:3:forces:R:3 energy=-0.07601974546165087 pbc="F F F"
Xe       0.00000000       0.00000000       0.00000000       0.00000000       0.00000000       0.09478860
Xe       0.00000000       0.00000000       4.39090909       0.00000000       0.00000000      -0.09478860
2
Properties=species:S:1:pos:R:3:forces:R:3 energy=-0.07075346299622126 pbc="F F F"
Xe       0.00000000       0.00000000       0.00000000       0.00000000       0.00000000       0.08197348
Xe       0.00000000       0.00000000       4.45050505       0.00000000       0.00000000      -0.08197348
2
Properties=species:S:1:pos:R:3:forces:R:3 energy=-0.0662362716184736 pbc="F F F"
Xe       0.00000000       0.00000000       0.00000000       0.00000000       0.00000000       0.06980220
Xe       0.00000000       0.00000000       4.51010101       0.00000000       0.00000000      -0.06980220
2
Properties=species:S:1:pos:R:3:forces:R:3 energy=-0.06240548172489869 pbc="F F F"
Xe       0.00000000       0.00000000       0.00000000       0.00000000       0.00000000       0.05903921
Xe       0.00000000       0.00000000       4.56969697       0.00000000       0.00000000      -0.05903921
2
Properties=species:S:1:pos:R:3:forces:R:3 energy=-0.059160607111545326 pbc="F F F"
Xe       0.00000000       0.00000000       0.00000000       0.00000000       0.00000000       0.05020590
Xe       0.00000000       0.00000000       4.62929293       0.00000000       0.00000000      -0.05020590
2
Properties=species:S:1:pos:R:3:forces:R:3 energy=-0.056377894491118095 pbc="F F F"
Xe       0.00000000       0.00000000       0.00000000       0.00000000       0.00000000       0.04355345
Xe       0.00000000       0.00000000       4.68888889       0.00000000       0.00000000      -0.04355345
2
Properties=species:S:1:pos:R:3:forces:R:3 energy=-0.05392619501705452 pbc="F F F"
Xe       0.00000000       0.00000000       0.00000000       0.00000000       0.00000000       0.03907176
Xe       0.00000000       0.00000000       4.74848485       0.00000000       0.00000000      -0.03907176
2
Properties=species:S:1:pos:R:3:forces:R:3 energy=-0.051682239619645326 pbc="F F F"
Xe       0.00000000       0.00000000       0.00000000       0.00000000       0.00000000       0.03652814
Xe       0.00000000       0.00000000       4.80808081       0.00000000       0.00000000      -0.03652814
2
Properties=species:S:1:pos:R:3:forces:R:3 energy=-0.04954167718269794 pbc="F F F"
Xe       0.00000000       0.00000000       0.00000000       0.00000000       0.00000000       0.03552455
Xe       0.00000000       0.00000000       4.86767677       0.00000000       0.00000000      -0.03552455
2
Properties=species:S:1:pos:R:3:forces:R:3 energy=-0.047427190721159265 pbc="F F F"
Xe       0.00000000       0.00000000       0.00000000       0.00000000       0.00000000       0.03556639
Xe       0.00000000       0.00000000       4.92727273       0.00000000       0.00000000      -0.03556639
2
Properties=species:S:1:pos:R:3:forces:R:3 energy=-0.045292016223044546 pbc="F F F"
Xe       0.00000000       0.00000000       0.00000000       0.00000000       0.00000000       0.03613500
Xe       0.00000000       0.00000000       4.98686869       0.00000000       0.00000000      -0.03613500
2
Properties=species:S:1:pos:R:3:forces:R:3 energy=-0.043119387227209365 pbc="F F F"
Xe       0.00000000       0.00000000       0.00000000       0.00000000       0.00000000       0.03675557
Xe       0.00000000       0.00000000       5.04646465       0.00000000       0.00000000      -0.03675557
2
Properties=species:S:1:pos:R:3:forces:R:3 energy=-0.04091774978970863 pbc="F F F"
Xe       0.00000000       0.00000000       0.00000000       0.00000000       0.00000000       0.03704891
Xe       0.00000000       0.00000000       5.10606061       0.00000000       0.00000000      -0.03704891
2
Properties=species:S:1:pos:R:3:forces:R:3 energy=-0.038714842099324555 pbc="F F F"
Xe       0.00000000       0.00000000       0.00000000       0.00000000       0.00000000       0.03676005
Xe       0.00000000       0.00000000       5.16565657       0.00000000       0.00000000      -0.03676005
2
Properties=species:S:1:pos:R:3:forces:R:3 energy=-0.03655021355043318 pbc="F F F"
Xe       0.00000000       0.00000000       0.00000000       0.00000000       0.00000000       0.03576489
Xe       0.00000000       0.00000000       5.22525253       0.00000000       0.00000000      -0.03576489
2
Properties=species:S:1:pos:R:3:forces:R:3 energy=-0.03446627828136583 pbc="F F F"
Xe       0.00000000       0.00000000       0.00000000       0.00000000       0.00000000       0.03405784
Xe       0.00000000       0.00000000       5.28484848       0.00000000       0.00000000      -0.03405784
2
Properties=species:S:1:pos:R:3:forces:R:3 energy=-0.03250328648374217 pbc="F F F"
Xe       0.00000000       0.00000000       0.00000000       0.00000000       0.00000000       0.03172245
Xe       0.00000000       0.00000000       5.34444444       0.00000000       0.00000000      -0.03172245
2
Properties=species:S:1:pos:R:3:forces:R:3 energy=-0.030694842555260407 pbc="F F F"
Xe       0.00000000       0.00000000       0.00000000       0.00000000       0.00000000       0.02889863
Xe       0.00000000       0.00000000       5.40404040       0.00000000       0.00000000      -0.02889863
2
Properties=species:S:1:pos:R:3:forces:R:3 energy=-0.029064895180137374 pbc="F F F"
Xe       0.00000000       0.00000000       0.00000000       0.00000000       0.00000000       0.02575484
Xe       0.00000000       0.00000000       5.46363636       0.00000000       0.00000000      -0.02575484
2
Properties=species:S:1:pos:R:3:forces:R:3 energy=-0.027628392524480235 pbc="F F F"
Xe       0.00000000       0.00000000       0.00000000       0.00000000       0.00000000       0.02245898
Xe       0.00000000       0.00000000       5.52323232       0.00000000       0.00000000      -0.02245898
2
Properties=species:S:1:pos:R:3:forces:R:3 energy=-0.026388239479322124 pbc="F F F"
Xe       0.00000000       0.00000000       0.00000000       0.00000000       0.00000000       0.01916767
Xe       0.00000000       0.00000000       5.58282828       0.00000000       0.00000000      -0.01916767
2
Properties=species:S:1:pos:R:3:forces:R:3 energy=-0.025340934024843727 pbc="F F F"
Xe       0.00000000       0.00000000       0.00000000       0.00000000       0.00000000       0.01601513
Xe       0.00000000       0.00000000       5.64242424       0.00000000       0.00000000      -0.01601513
2
Properties=species:S:1:pos:R:3:forces:R:3 energy=-0.02447416644002385 pbc="F F F"
Xe       0.00000000       0.00000000       0.00000000       0.00000000       0.00000000       0.01310983
Xe       0.00000000       0.00000000       5.70202020       0.00000000       0.00000000      -0.01310983
2
Properties=species:S:1:pos:R:3:forces:R:3 energy=-0.023771690075457992 pbc="F F F"
Xe       0.00000000       0.00000000       0.00000000       0.00000000       0.00000000       0.01054042
Xe       0.00000000       0.00000000       5.76161616       0.00000000       0.00000000      -0.01054042
2
Properties=species:S:1:pos:R:3:forces:R:3 energy=-0.023209897694330357 pbc="F F F"
Xe       0.00000000       0.00000000       0.00000000       0.00000000       0.00000000       0.00837892
Xe       0.00000000       0.00000000       5.82121212       0.00000000       0.00000000      -0.00837892
2
Properties=species:S:1:pos:R:3:forces:R:3 energy=-0.022763859506529763 pbc="F F F"
Xe       0.00000000       0.00000000       0.00000000       0.00000000       0.00000000       0.00668458
Xe       0.00000000       0.00000000       5.88080808       0.00000000       0.00000000      -0.00668458
2
Properties=species:S:1:pos:R:3:forces:R:3 energy=-0.022402710555797976 pbc="F F F"
Xe       0.00000000       0.00000000       0.00000000       0.00000000       0.00000000       0.00550984
Xe       0.00000000       0.00000000       5.94040404       0.00000000       0.00000000      -0.00550984
2
Properties=species:S:1:pos:R:3:forces:R:3 energy=-0.02209562274055956 pbc="F F F"
Xe       0.00000000       0.00000000       0.00000000       0.00000000       0.00000000       0.00489970
Xe       0.00000000       0.00000000       6.00000000       0.00000000       0.00000000      -0.00489970
