2
Properties=species:S:1:pos:R:3:forces:R:3 energy=-2794370.8663657145 pbc="F F F"
Ac       0.00000000       0.00000000       0.00000000       0.00000000       0.00000000 -201580.70312500
Ac       0.00000000       0.00000000       0.18000000       0.00000000       0.00000000  201580.70312500
2
Properties=species:S:1:pos:R:3:forces:R:3 energy=-2791801.8663657145 pbc="F F F"
Ac       0.00000000       0.00000000       0.00000000       0.00000000       0.00000000  269284.31250000
Ac       0.00000000       0.00000000       0.23878788       0.00000000       0.00000000 -269284.31250000
2
Properties=species:S:1:pos:R:3:forces:R:3 energy=-2761634.6163657145 pbc="F F F"
Ac       0.00000000       0.00000000       0.00000000       0.00000000       0.00000000  782199.62500000
Ac       0.00000000       0.00000000       0.29757576       0.00000000       0.00000000 -782199.62500000
2
Properties=species:S:1:pos:R:3:forces:R:3 energy=-2695406.6163657145 pbc="F F F"
Ac       0.00000000       0.00000000       0.00000000       0.00000000       0.00000000 1515774.75000000
Ac       0.00000000       0.00000000       0.35636364       0.00000000       0.00000000 -1515774.75000000
2
Properties=species:S:1:pos:R:3:forces:R:3 energy=-2577930.3663657145 pbc="F F F"
Ac       0.00000000       0.00000000       0.00000000       0.00000000       0.00000000 2527516.00000000
Ac       0.00000000       0.00000000       0.41515152       0.00000000       0.00000000 -2527516.00000000
2
Properties=species:S:1:pos:R:3:forces:R:3 energy=-2393321.366365702 pbc="F F F"
Ac       0.00000000       0.00000000       0.00000000       0.00000000       0.00000000 3785743.50000000
Ac       0.00000000       0.00000000       0.47393939       0.00000000       0.00000000 -3785743.50000000
2
Properties=species:S:1:pos:R:3:forces:R:3 energy=-2130752.866365689 pbc="F F F"
Ac       0.00000000       0.00000000       0.00000000       0.00000000       0.00000000 5145112.50000000
Ac       0.00000000       0.00000000       0.53272727       0.00000000       0.00000000 -5145112.50000000
2
Properties=species:S:1:pos:R:3:forces:R:3 energy=-1791673.1163656763 pbc="F F F"
Ac       0.00000000       0.00000000       0.00000000       0.00000000       0.00000000 6333616.00000000
Ac       0.00000000       0.00000000       0.59151515       0.00000000       0.00000000 -6333616.00000000
2
Properties=species:S:1:pos:R:3:forces:R:3 energy=-1396390.3663656511 pbc="F F F"
Ac       0.00000000       0.00000000       0.00000000       0.00000000       0.00000000 6996669.50000000
Ac       0.00000000       0.00000000       0.65030303       0.00000000       0.00000000 -6996669.50000000
2
Properties=species:S:1:pos:R:3:forces:R:3 energy=-985517.1163656004 pbc="F F F"
Ac       0.00000000       0.00000000       0.00000000       0.00000000       0.00000000 6826880.50000000
Ac       0.00000000       0.00000000       0.70909091       0.00000000       0.00000000 -6826880.50000000
2
Properties=species:S:1:pos:R:3:forces:R:3 energy=-611749.178865537 pbc="F F F"
Ac       0.00000000       0.00000000       0.00000000       0.00000000       0.00000000 5750452.00000000
Ac       0.00000000       0.00000000       0.76787879       0.00000000       0.00000000 -5750452.00000000
2
Properties=species:S:1:pos:R:3:forces:R:3 energy=-321789.02261543565 pbc="F F F"
Ac       0.00000000       0.00000000       0.00000000       0.00000000       0.00000000 4052068.00000000
Ac       0.00000000       0.00000000       0.82666667       0.00000000       0.00000000 -4052068.00000000
2
Properties=species:S:1:pos:R:3:forces:R:3 energy=-136571.56949028358 pbc="F F F"
Ac       0.00000000       0.00000000       0.00000000       0.00000000       0.00000000 2288237.00000000
Ac       0.00000000       0.00000000       0.88545455       0.00000000       0.00000000 -2288237.00000000
2
Properties=species:S:1:pos:R:3:forces:R:3 energy=-42329.839021318156 pbc="F F F"
Ac       0.00000000       0.00000000       0.00000000       0.00000000       0.00000000 1053394.37500000
Ac       0.00000000       0.00000000       0.94424242       0.00000000       0.00000000 -1053394.37500000
2
Properties=species:S:1:pos:R:3:forces:R:3 energy=-7312.344880414391 pbc="F F F"
Ac       0.00000000       0.00000000       0.00000000       0.00000000       0.00000000  272269.93750000
Ac       0.00000000       0.00000000       1.00303030       0.00000000       0.00000000 -272269.93750000
2
Properties=species:S:1:pos:R:3:forces:R:3 energy=-429.98751919440815 pbc="F F F"
Ac       0.00000000       0.00000000       0.00000000       0.00000000       0.00000000   26849.55078125
Ac       0.00000000       0.00000000       1.06181818       0.00000000       0.00000000  -26849.55078125
2
Properties=species:S:1:pos:R:3:forces:R:3 energy=62.52102624698966 pbc="F F F"
Ac       0.00000000       0.00000000       0.00000000       0.00000000       0.00000000    1473.33728027
Ac       0.00000000       0.00000000       1.12060606       0.00000000       0.00000000   -1473.33728027
2
Properties=species:S:1:pos:R:3:forces:R:3 energy=108.47318297279121 pbc="F F F"
Ac       0.00000000       0.00000000       0.00000000       0.00000000       0.00000000     133.49061584
Ac       0.00000000       0.00000000       1.17939394       0.00000000       0.00000000    -133.49061584
2
Properties=species:S:1:pos:R:3:forces:R:3 energy=110.31956597555211 pbc="F F F"
Ac       0.00000000       0.00000000       0.00000000       0.00000000       0.00000000     -49.05113602
Ac       0.00000000       0.00000000       1.23818182       0.00000000       0.00000000      49.05113602
2
Properties=species:S:1:pos:R:3:forces:R:3 energy=104.53087843095754 pbc="F F F"
Ac       0.00000000       0.00000000       0.00000000       0.00000000       0.00000000    -125.34835052
Ac       0.00000000       0.00000000       1.29696970       0.00000000       0.00000000     125.34835052
2
Properties=species:S:1:pos:R:3:forces:R:3 energy=96.19954284970163 pbc="F F F"
Ac       0.00000000       0.00000000       0.00000000       0.00000000       0.00000000    -154.55491638
Ac       0.00000000       0.00000000       1.35575758       0.00000000       0.00000000     154.55491638
2
Properties=species:S:1:pos:R:3:forces:R:3 energy=86.66596763300743 pbc="F F F"
Ac       0.00000000       0.00000000       0.00000000       0.00000000       0.00000000    -168.70889282
Ac       0.00000000       0.00000000       1.41454545       0.00000000       0.00000000     168.70889282
2
Properties=species:S:1:pos:R:3:forces:R:3 energy=76.46321099806399 pbc="F F F"
Ac       0.00000000       0.00000000       0.00000000       0.00000000       0.00000000    -177.20191956
Ac       0.00000000       0.00000000       1.47333333       0.00000000       0.00000000     177.20191956
2
Properties=species:S:1:pos:R:3:forces:R:3 energy=66.01820636015842 pbc="F F F"
Ac       0.00000000       0.00000000       0.00000000       0.00000000       0.00000000    -176.37863159
Ac       0.00000000       0.00000000       1.53212121       0.00000000       0.00000000     176.37863159
2
Properties=species:S:1:pos:R:3:forces:R:3 energy=55.91397682859364 pbc="F F F"
Ac       0.00000000       0.00000000       0.00000000       0.00000000       0.00000000    -166.06738281
Ac       0.00000000       0.00000000       1.59090909       0.00000000       0.00000000     166.06738281
2
Properties=species:S:1:pos:R:3:forces:R:3 energy=46.605760885039004 pbc="F F F"
Ac       0.00000000       0.00000000       0.00000000       0.00000000       0.00000000    -149.94934082
Ac       0.00000000       0.00000000       1.64969697       0.00000000       0.00000000     149.94934082
2
Properties=species:S:1:pos:R:3:forces:R:3 energy=38.33168729297418 pbc="F F F"
Ac       0.00000000       0.00000000       0.00000000       0.00000000       0.00000000    -131.35095215
Ac       0.00000000       0.00000000       1.70848485       0.00000000       0.00000000     131.35095215
2
Properties=species:S:1:pos:R:3:forces:R:3 energy=31.161887506334512 pbc="F F F"
Ac       0.00000000       0.00000000       0.00000000       0.00000000       0.00000000    -112.72891235
Ac       0.00000000       0.00000000       1.76727273       0.00000000       0.00000000     112.72891235
2
Properties=species:S:1:pos:R:3:forces:R:3 energy=25.048426178664336 pbc="F F F"
Ac       0.00000000       0.00000000       0.00000000       0.00000000       0.00000000     -95.54665375
Ac       0.00000000       0.00000000       1.82606061       0.00000000       0.00000000      95.54665375
2
Properties=species:S:1:pos:R:3:forces:R:3 energy=19.893845588948214 pbc="F F F"
Ac       0.00000000       0.00000000       0.00000000       0.00000000       0.00000000     -80.08926392
Ac       0.00000000       0.00000000       1.88484848       0.00000000       0.00000000      80.08926392
2
Properties=species:S:1:pos:R:3:forces:R:3 energy=15.601313677207427 pbc="F F F"
Ac       0.00000000       0.00000000       0.00000000       0.00000000       0.00000000     -66.20342255
Ac       0.00000000       0.00000000       1.94363636       0.00000000       0.00000000      66.20342255
2
Properties=species:S:1:pos:R:3:forces:R:3 energy=12.07740869747615 pbc="F F F"
Ac       0.00000000       0.00000000       0.00000000       0.00000000       0.00000000     -53.98367691
Ac       0.00000000       0.00000000       2.00242424       0.00000000       0.00000000      53.98367691
2
Properties=species:S:1:pos:R:3:forces:R:3 energy=9.215989812787084 pbc="F F F"
Ac       0.00000000       0.00000000       0.00000000       0.00000000       0.00000000     -43.70157623
Ac       0.00000000       0.00000000       2.06121212       0.00000000       0.00000000      43.70157623
2
Properties=species:S:1:pos:R:3:forces:R:3 energy=6.90010200893334 pbc="F F F"
Ac       0.00000000       0.00000000       0.00000000       0.00000000       0.00000000     -35.40188217
Ac       0.00000000       0.00000000       2.12000000       0.00000000       0.00000000      35.40188217
2
Properties=species:S:1:pos:R:3:forces:R:3 energy=5.019895170707823 pbc="F F F"
Ac       0.00000000       0.00000000       0.00000000       0.00000000       0.00000000     -28.81696129
Ac       0.00000000       0.00000000       2.17878788       0.00000000       0.00000000      28.81696129
2
Properties=species:S:1:pos:R:3:forces:R:3 energy=3.4862835464658444 pbc="F F F"
Ac       0.00000000       0.00000000       0.00000000       0.00000000       0.00000000     -23.54178047
Ac       0.00000000       0.00000000       2.23757576       0.00000000       0.00000000      23.54178047
2
Properties=species:S:1:pos:R:3:forces:R:3 energy=2.233764421266277 pbc="F F F"
Ac       0.00000000       0.00000000       0.00000000       0.00000000       0.00000000     -19.19886780
Ac       0.00000000       0.00000000       2.29636364       0.00000000       0.00000000      19.19886780
2
Properties=species:S:1:pos:R:3:forces:R:3 energy=1.2159587029218635 pbc="F F F"
Ac       0.00000000       0.00000000       0.00000000       0.00000000       0.00000000     -15.52491379
Ac       0.00000000       0.00000000       2.35515152       0.00000000       0.00000000      15.52491379
2
Properties=species:S:1:pos:R:3:forces:R:3 energy=0.3977817528735662 pbc="F F F"
Ac       0.00000000       0.00000000       0.00000000       0.00000000       0.00000000     -12.39684677
Ac       0.00000000       0.00000000       2.41393939       0.00000000       0.00000000      12.39684677
2
Properties=species:S:1:pos:R:3:forces:R:3 energy=-0.25175789351983835 pbc="F F F"
Ac       0.00000000       0.00000000       0.00000000       0.00000000       0.00000000      -9.78648949
Ac       0.00000000       0.00000000       2.47272727       0.00000000       0.00000000       9.78648949
2
Properties=species:S:1:pos:R:3:forces:R:3 energy=-0.7627211785279175 pbc="F F F"
Ac       0.00000000       0.00000000       0.00000000       0.00000000       0.00000000      -7.67728376
Ac       0.00000000       0.00000000       2.53151515       0.00000000       0.00000000       7.67728376
2
Properties=species:S:1:pos:R:3:forces:R:3 energy=-1.1632479918868204 pbc="F F F"
Ac       0.00000000       0.00000000       0.00000000       0.00000000       0.00000000      -6.01748943
Ac       0.00000000       0.00000000       2.59030303       0.00000000       0.00000000       6.01748943
2
Properties=species:S:1:pos:R:3:forces:R:3 energy=-1.4774496646016164 pbc="F F F"
Ac       0.00000000       0.00000000       0.00000000       0.00000000       0.00000000      -4.72579050
Ac       0.00000000       0.00000000       2.64909091       0.00000000       0.00000000       4.72579050
2
Properties=species:S:1:pos:R:3:forces:R:3 energy=-1.724388389124077 pbc="F F F"
Ac       0.00000000       0.00000000       0.00000000       0.00000000       0.00000000      -3.71540880
Ac       0.00000000       0.00000000       2.70787879       0.00000000       0.00000000       3.71540880
2
Properties=species:S:1:pos:R:3:forces:R:3 energy=-1.9183429279395923 pbc="F F F"
Ac       0.00000000       0.00000000       0.00000000       0.00000000       0.00000000      -2.91258478
Ac       0.00000000       0.00000000       2.76666667       0.00000000       0.00000000       2.91258478
2
Properties=species:S:1:pos:R:3:forces:R:3 energy=-2.069875128395629 pbc="F F F"
Ac       0.00000000       0.00000000       0.00000000       0.00000000       0.00000000      -2.26550746
Ac       0.00000000       0.00000000       2.82545455       0.00000000       0.00000000       2.26550746
2
Properties=species:S:1:pos:R:3:forces:R:3 energy=-2.1871518725274246 pbc="F F F"
Ac       0.00000000       0.00000000       0.00000000       0.00000000       0.00000000      -1.74329388
Ac       0.00000000       0.00000000       2.88424242       0.00000000       0.00000000       1.74329388
2
Properties=species:S:1:pos:R:3:forces:R:3 energy=-2.276910352689345 pbc="F F F"
Ac       0.00000000       0.00000000       0.00000000       0.00000000       0.00000000      -1.32647693
Ac       0.00000000       0.00000000       2.94303030       0.00000000       0.00000000       1.32647693
2
Properties=species:S:1:pos:R:3:forces:R:3 energy=-2.344826722531022 pbc="F F F"
Ac       0.00000000       0.00000000       0.00000000       0.00000000       0.00000000      -0.99706280
Ac       0.00000000       0.00000000       3.00181818       0.00000000       0.00000000       0.99706280
2
Properties=species:S:1:pos:R:3:forces:R:3 energy=-2.3954628841367533 pbc="F F F"
Ac       0.00000000       0.00000000       0.00000000       0.00000000       0.00000000      -0.73519731
Ac       0.00000000       0.00000000       3.06060606       0.00000000       0.00000000       0.73519731
2
Properties=species:S:1:pos:R:3:forces:R:3 energy=-2.4322162042161 pbc="F F F"
Ac       0.00000000       0.00000000       0.00000000       0.00000000       0.00000000      -0.52184993
Ac       0.00000000       0.00000000       3.11939394       0.00000000       0.00000000       0.52184993
2
Properties=species:S:1:pos:R:3:forces:R:3 energy=-2.45747915084567 pbc="F F F"
Ac       0.00000000       0.00000000       0.00000000       0.00000000       0.00000000      -0.34230235
Ac       0.00000000       0.00000000       3.17818182       0.00000000       0.00000000       0.34230235
2
Properties=species:S:1:pos:R:3:forces:R:3 energy=-2.472934909500535 pbc="F F F"
Ac       0.00000000       0.00000000       0.00000000       0.00000000       0.00000000      -0.18694620
Ac       0.00000000       0.00000000       3.23696970       0.00000000       0.00000000       0.18694620
2
Properties=species:S:1:pos:R:3:forces:R:3 energy=-2.479811435889239 pbc="F F F"
Ac       0.00000000       0.00000000       0.00000000       0.00000000       0.00000000      -0.04958749
Ac       0.00000000       0.00000000       3.29575758       0.00000000       0.00000000       0.04958749
2
Properties=species:S:1:pos:R:3:forces:R:3 energy=-2.4790238401947784 pbc="F F F"
Ac       0.00000000       0.00000000       0.00000000       0.00000000       0.00000000       0.07452644
Ac       0.00000000       0.00000000       3.35454545       0.00000000       0.00000000      -0.07452644
2
Properties=species:S:1:pos:R:3:forces:R:3 energy=-2.4712294917807527 pbc="F F F"
Ac       0.00000000       0.00000000       0.00000000       0.00000000       0.00000000       0.18937747
Ac       0.00000000       0.00000000       3.41333333       0.00000000       0.00000000      -0.18937747
2
Properties=species:S:1:pos:R:3:forces:R:3 energy=-2.456886576791001 pbc="F F F"
Ac       0.00000000       0.00000000       0.00000000       0.00000000       0.00000000       0.29758778
Ac       0.00000000       0.00000000       3.47212121       0.00000000       0.00000000      -0.29758778
2
Properties=species:S:1:pos:R:3:forces:R:3 energy=-2.43636008504751 pbc="F F F"
Ac       0.00000000       0.00000000       0.00000000       0.00000000       0.00000000       0.39965293
Ac       0.00000000       0.00000000       3.53090909       0.00000000       0.00000000      -0.39965293
2
Properties=species:S:1:pos:R:3:forces:R:3 energy=-2.4100480325131644 pbc="F F F"
Ac       0.00000000       0.00000000       0.00000000       0.00000000       0.00000000       0.49395755
Ac       0.00000000       0.00000000       3.58969697       0.00000000       0.00000000      -0.49395755
2
Properties=species:S:1:pos:R:3:forces:R:3 energy=-2.3784873951685994 pbc="F F F"
Ac       0.00000000       0.00000000       0.00000000       0.00000000       0.00000000       0.57780468
Ac       0.00000000       0.00000000       3.64848485       0.00000000       0.00000000      -0.57780468
2
Properties=species:S:1:pos:R:3:forces:R:3 energy=-2.3423646984640856 pbc="F F F"
Ac       0.00000000       0.00000000       0.00000000       0.00000000       0.00000000       0.64888656
Ac       0.00000000       0.00000000       3.70727273       0.00000000       0.00000000      -0.64888656
2
Properties=species:S:1:pos:R:3:forces:R:3 energy=-2.302460843593352 pbc="F F F"
Ac       0.00000000       0.00000000       0.00000000       0.00000000       0.00000000       0.70639491
Ac       0.00000000       0.00000000       3.76606061       0.00000000       0.00000000      -0.70639491
2
Properties=species:S:1:pos:R:3:forces:R:3 energy=-2.2595585757423176 pbc="F F F"
Ac       0.00000000       0.00000000       0.00000000       0.00000000       0.00000000       0.75120580
Ac       0.00000000       0.00000000       3.82484848       0.00000000       0.00000000      -0.75120580
2
Properties=species:S:1:pos:R:3:forces:R:3 energy=-2.2143488109300815 pbc="F F F"
Ac       0.00000000       0.00000000       0.00000000       0.00000000       0.00000000       0.78521109
Ac       0.00000000       0.00000000       3.88363636       0.00000000       0.00000000      -0.78521109
2
Properties=species:S:1:pos:R:3:forces:R:3 energy=-2.16740944209796 pbc="F F F"
Ac       0.00000000       0.00000000       0.00000000       0.00000000       0.00000000       0.81037158
Ac       0.00000000       0.00000000       3.94242424       0.00000000       0.00000000      -0.81037158
2
Properties=species:S:1:pos:R:3:forces:R:3 energy=-2.1192161162947962 pbc="F F F"
Ac       0.00000000       0.00000000       0.00000000       0.00000000       0.00000000       0.82806700
Ac       0.00000000       0.00000000       4.00121212       0.00000000       0.00000000      -0.82806700
2
Properties=species:S:1:pos:R:3:forces:R:3 energy=-2.070181251296722 pbc="F F F"
Ac       0.00000000       0.00000000       0.00000000       0.00000000       0.00000000       0.83903277
Ac       0.00000000       0.00000000       4.06000000       0.00000000       0.00000000      -0.83903277
2
Properties=species:S:1:pos:R:3:forces:R:3 energy=-2.0206887663560686 pbc="F F F"
Ac       0.00000000       0.00000000       0.00000000       0.00000000       0.00000000       0.84374893
Ac       0.00000000       0.00000000       4.11878788       0.00000000       0.00000000      -0.84374893
2
Properties=species:S:1:pos:R:3:forces:R:3 energy=-1.971084735527535 pbc="F F F"
Ac       0.00000000       0.00000000       0.00000000       0.00000000       0.00000000       0.84294111
Ac       0.00000000       0.00000000       4.17757576       0.00000000       0.00000000      -0.84294111
2
Properties=species:S:1:pos:R:3:forces:R:3 energy=-1.9216623978079705 pbc="F F F"
Ac       0.00000000       0.00000000       0.00000000       0.00000000       0.00000000       0.83784676
Ac       0.00000000       0.00000000       4.23636364       0.00000000       0.00000000      -0.83784676
2
Properties=species:S:1:pos:R:3:forces:R:3 energy=-1.8726237665774494 pbc="F F F"
Ac       0.00000000       0.00000000       0.00000000       0.00000000       0.00000000       0.83017981
Ac       0.00000000       0.00000000       4.29515152       0.00000000       0.00000000      -0.83017981
2
Properties=species:S:1:pos:R:3:forces:R:3 energy=-1.824066359354264 pbc="F F F"
Ac       0.00000000       0.00000000       0.00000000       0.00000000       0.00000000       0.82188696
Ac       0.00000000       0.00000000       4.35393939       0.00000000       0.00000000      -0.82188696
2
Properties=species:S:1:pos:R:3:forces:R:3 energy=-1.7759676067205714 pbc="F F F"
Ac       0.00000000       0.00000000       0.00000000       0.00000000       0.00000000       0.81477875
Ac       0.00000000       0.00000000       4.41272727       0.00000000       0.00000000      -0.81477875
2
Properties=species:S:1:pos:R:3:forces:R:3 energy=-1.728216518811855 pbc="F F F"
Ac       0.00000000       0.00000000       0.00000000       0.00000000       0.00000000       0.81023592
Ac       0.00000000       0.00000000       4.47151515       0.00000000       0.00000000      -0.81023592
2
Properties=species:S:1:pos:R:3:forces:R:3 energy=-1.6806382297592843 pbc="F F F"
Ac       0.00000000       0.00000000       0.00000000       0.00000000       0.00000000       0.80895764
Ac       0.00000000       0.00000000       4.53030303       0.00000000       0.00000000      -0.80895764
2
Properties=species:S:1:pos:R:3:forces:R:3 energy=-1.6330410421775292 pbc="F F F"
Ac       0.00000000       0.00000000       0.00000000       0.00000000       0.00000000       0.81082845
Ac       0.00000000       0.00000000       4.58909091       0.00000000       0.00000000      -0.81082845
2
Properties=species:S:1:pos:R:3:forces:R:3 energy=-1.5852618459040781 pbc="F F F"
Ac       0.00000000       0.00000000       0.00000000       0.00000000       0.00000000       0.81489742
Ac       0.00000000       0.00000000       4.64787879       0.00000000       0.00000000      -0.81489742
2
Properties=species:S:1:pos:R:3:forces:R:3 energy=-1.5372164623332958 pbc="F F F"
Ac       0.00000000       0.00000000       0.00000000       0.00000000       0.00000000       0.81953162
Ac       0.00000000       0.00000000       4.70666667       0.00000000       0.00000000      -0.81953162
2
Properties=species:S:1:pos:R:3:forces:R:3 energy=-1.4889324839918463 pbc="F F F"
Ac       0.00000000       0.00000000       0.00000000       0.00000000       0.00000000       0.82278621
Ac       0.00000000       0.00000000       4.76545455       0.00000000       0.00000000      -0.82278621
2
Properties=species:S:1:pos:R:3:forces:R:3 energy=-1.4405338902046991 pbc="F F F"
Ac       0.00000000       0.00000000       0.00000000       0.00000000       0.00000000       0.82306045
Ac       0.00000000       0.00000000       4.82424242       0.00000000       0.00000000      -0.82306045
2
Properties=species:S:1:pos:R:3:forces:R:3 energy=-1.3922328164864555 pbc="F F F"
Ac       0.00000000       0.00000000       0.00000000       0.00000000       0.00000000       0.81981254
Ac       0.00000000       0.00000000       4.88303030       0.00000000       0.00000000      -0.81981254
2
Properties=species:S:1:pos:R:3:forces:R:3 energy=-1.3441927074446383 pbc="F F F"
Ac       0.00000000       0.00000000       0.00000000       0.00000000       0.00000000       0.81423426
Ac       0.00000000       0.00000000       4.94181818       0.00000000       0.00000000      -0.81423426
2
Properties=species:S:1:pos:R:3:forces:R:3 energy=-1.2964821154284512 pbc="F F F"
Ac       0.00000000       0.00000000       0.00000000       0.00000000       0.00000000       0.80941284
Ac       0.00000000       0.00000000       5.00060606       0.00000000       0.00000000      -0.80941284
2
Properties=species:S:1:pos:R:3:forces:R:3 energy=-1.2489237498899877 pbc="F F F"
Ac       0.00000000       0.00000000       0.00000000       0.00000000       0.00000000       0.80962020
Ac       0.00000000       0.00000000       5.05939394       0.00000000       0.00000000      -0.80962020
2
Properties=species:S:1:pos:R:3:forces:R:3 energy=-1.201121644430958 pbc="F F F"
Ac       0.00000000       0.00000000       0.00000000       0.00000000       0.00000000       0.81830728
Ac       0.00000000       0.00000000       5.11818182       0.00000000       0.00000000      -0.81830728
2
Properties=species:S:1:pos:R:3:forces:R:3 energy=-1.1525552446103682 pbc="F F F"
Ac       0.00000000       0.00000000       0.00000000       0.00000000       0.00000000       0.83481944
Ac       0.00000000       0.00000000       5.17696970       0.00000000       0.00000000      -0.83481944
2
Properties=species:S:1:pos:R:3:forces:R:3 energy=-1.1029842870413427 pbc="F F F"
Ac       0.00000000       0.00000000       0.00000000       0.00000000       0.00000000       0.85019809
Ac       0.00000000       0.00000000       5.23575758       0.00000000       0.00000000      -0.85019809
2
Properties=species:S:1:pos:R:3:forces:R:3 energy=-1.0529790474787402 pbc="F F F"
Ac       0.00000000       0.00000000       0.00000000       0.00000000       0.00000000       0.84591430
Ac       0.00000000       0.00000000       5.29454545       0.00000000       0.00000000      -0.84591430
2
Properties=species:S:1:pos:R:3:forces:R:3 energy=-1.0042199212673897 pbc="F F F"
Ac       0.00000000       0.00000000       0.00000000       0.00000000       0.00000000       0.80748296
Ac       0.00000000       0.00000000       5.35333333       0.00000000       0.00000000      -0.80748296
2
Properties=species:S:1:pos:R:3:forces:R:3 energy=-0.9582289287953183 pbc="F F F"
Ac       0.00000000       0.00000000       0.00000000       0.00000000       0.00000000       0.76146704
Ac       0.00000000       0.00000000       5.41212121       0.00000000       0.00000000      -0.76146704
2
Properties=species:S:1:pos:R:3:forces:R:3 energy=-0.9135683720490865 pbc="F F F"
Ac       0.00000000       0.00000000       0.00000000       0.00000000       0.00000000       0.76883638
Ac       0.00000000       0.00000000       5.47090909       0.00000000       0.00000000      -0.76883638
2
Properties=species:S:1:pos:R:3:forces:R:3 energy=-0.8673566530063601 pbc="F F F"
Ac       0.00000000       0.00000000       0.00000000       0.00000000       0.00000000       0.79650718
Ac       0.00000000       0.00000000       5.52969697       0.00000000       0.00000000      -0.79650718
2
Properties=species:S:1:pos:R:3:forces:R:3 energy=-0.8215698644149895 pbc="F F F"
Ac       0.00000000       0.00000000       0.00000000       0.00000000       0.00000000       0.74599558
Ac       0.00000000       0.00000000       5.58848485       0.00000000       0.00000000      -0.74599558
2
Properties=species:S:1:pos:R:3:forces:R:3 energy=-0.7806733295407714 pbc="F F F"
Ac       0.00000000       0.00000000       0.00000000       0.00000000       0.00000000       0.64749706
Ac       0.00000000       0.00000000       5.64727273       0.00000000       0.00000000      -0.64749706
2
Properties=species:S:1:pos:R:3:forces:R:3 energy=-0.7438464135071274 pbc="F F F"
Ac       0.00000000       0.00000000       0.00000000       0.00000000       0.00000000       0.62962556
Ac       0.00000000       0.00000000       5.70606061       0.00000000       0.00000000      -0.62962556
2
Properties=species:S:1:pos:R:3:forces:R:3 energy=-0.7037182972760803 pbc="F F F"
Ac       0.00000000       0.00000000       0.00000000       0.00000000       0.00000000       0.74303758
Ac       0.00000000       0.00000000       5.76484848       0.00000000       0.00000000      -0.74303758
2
Properties=species:S:1:pos:R:3:forces:R:3 energy=-0.658625808726632 pbc="F F F"
Ac       0.00000000       0.00000000       0.00000000       0.00000000       0.00000000       0.74876416
Ac       0.00000000       0.00000000       5.82363636       0.00000000       0.00000000      -0.74876416
2
Properties=species:S:1:pos:R:3:forces:R:3 energy=-0.6214308722208114 pbc="F F F"
Ac       0.00000000       0.00000000       0.00000000       0.00000000       0.00000000       0.48699534
Ac       0.00000000       0.00000000       5.88242424       0.00000000       0.00000000      -0.48699534
2
Properties=species:S:1:pos:R:3:forces:R:3 energy=-0.6025301550932466 pbc="F F F"
Ac       0.00000000       0.00000000       0.00000000       0.00000000       0.00000000       0.16802014
Ac       0.00000000       0.00000000       5.94121212       0.00000000       0.00000000      -0.16802014
2
Properties=species:S:1:pos:R:3:forces:R:3 energy=-0.5978550879299225 pbc="F F F"
Ac       0.00000000       0.00000000       0.00000000       0.00000000       0.00000000       0.03497398
Ac       0.00000000       0.00000000       6.00000000       0.00000000       0.00000000      -0.03497398
