2
Properties=species:S:1:pos:R:3:forces:R:3 energy=638.1175960178939 pbc="F F F"
C        0.00000000       0.00000000       0.00000000       0.00000000       0.00000000   -4781.81396484
C        0.00000000       0.00000000       0.18000000       0.00000000       0.00000000    4781.81396484
2
Properties=species:S:1:pos:R:3:forces:R:3 energy=451.6561397206497 pbc="F F F"
C        0.00000000       0.00000000       0.00000000       0.00000000       0.00000000   -2070.10888672
C        0.00000000       0.00000000       0.23878788       0.00000000       0.00000000    2070.10888672
2
Properties=species:S:1:pos:R:3:forces:R:3 energy=355.1757014913956 pbc="F F F"
C        0.00000000       0.00000000       0.00000000       0.00000000       0.00000000   -1424.69873047
C        0.00000000       0.00000000       0.29757576       0.00000000       0.00000000    1424.69873047
2
Properties=species:S:1:pos:R:3:forces:R:3 energy=279.9979366067371 pbc="F F F"
C        0.00000000       0.00000000       0.00000000       0.00000000       0.00000000   -1185.31323242
C        0.00000000       0.00000000       0.35636364       0.00000000       0.00000000    1185.31323242
2
Properties=species:S:1:pos:R:3:forces:R:3 energy=202.58243979957214 pbc="F F F"
C        0.00000000       0.00000000       0.00000000       0.00000000       0.00000000   -1311.22619629
C        0.00000000       0.00000000       0.41515152       0.00000000       0.00000000    1311.22619629
2
Properties=species:S:1:pos:R:3:forces:R:3 energy=145.10522120965632 pbc="F F F"
C        0.00000000       0.00000000       0.00000000       0.00000000       0.00000000    -771.26226807
C        0.00000000       0.00000000       0.47393939       0.00000000       0.00000000     771.26226807
2
Properties=species:S:1:pos:R:3:forces:R:3 energy=103.81250429936793 pbc="F F F"
C        0.00000000       0.00000000       0.00000000       0.00000000       0.00000000    -633.16870117
C        0.00000000       0.00000000       0.53272727       0.00000000       0.00000000     633.16870117
2
Properties=species:S:1:pos:R:3:forces:R:3 energy=71.5882917748447 pbc="F F F"
C        0.00000000       0.00000000       0.00000000       0.00000000       0.00000000    -468.89694214
C        0.00000000       0.00000000       0.59151515       0.00000000       0.00000000     468.89694214
2
Properties=species:S:1:pos:R:3:forces:R:3 energy=47.736130568530704 pbc="F F F"
C        0.00000000       0.00000000       0.00000000       0.00000000       0.00000000    -349.17825317
C        0.00000000       0.00000000       0.65030303       0.00000000       0.00000000     349.17825317
2
Properties=species:S:1:pos:R:3:forces:R:3 energy=29.930281808411628 pbc="F F F"
C        0.00000000       0.00000000       0.00000000       0.00000000       0.00000000    -259.69525146
C        0.00000000       0.00000000       0.70909091       0.00000000       0.00000000     259.69525146
2
Properties=species:S:1:pos:R:3:forces:R:3 energy=16.903930359625747 pbc="F F F"
C        0.00000000       0.00000000       0.00000000       0.00000000       0.00000000    -185.67764282
C        0.00000000       0.00000000       0.76787879       0.00000000       0.00000000     185.67764282
2
Properties=species:S:1:pos:R:3:forces:R:3 energy=7.835142539191613 pbc="F F F"
C        0.00000000       0.00000000       0.00000000       0.00000000       0.00000000    -126.09727478
C        0.00000000       0.00000000       0.82666667       0.00000000       0.00000000     126.09727478
2
Properties=species:S:1:pos:R:3:forces:R:3 energy=1.650939688166869 pbc="F F F"
C        0.00000000       0.00000000       0.00000000       0.00000000       0.00000000     -87.15357208
C        0.00000000       0.00000000       0.88545455       0.00000000       0.00000000      87.15357208
2
Properties=species:S:1:pos:R:3:forces:R:3 energy=-2.6352908872777148 pbc="F F F"
C        0.00000000       0.00000000       0.00000000       0.00000000       0.00000000     -60.06418610
C        0.00000000       0.00000000       0.94424242       0.00000000       0.00000000      60.06418610
2
Properties=species:S:1:pos:R:3:forces:R:3 energy=-5.563673959953373 pbc="F F F"
C        0.00000000       0.00000000       0.00000000       0.00000000       0.00000000     -40.77646637
C        0.00000000       0.00000000       1.00303030       0.00000000       0.00000000      40.77646637
2
Properties=species:S:1:pos:R:3:forces:R:3 energy=-7.547526584494193 pbc="F F F"
C        0.00000000       0.00000000       0.00000000       0.00000000       0.00000000     -27.45187569
C        0.00000000       0.00000000       1.06181818       0.00000000       0.00000000      27.45187569
2
Properties=species:S:1:pos:R:3:forces:R:3 energy=-8.852726548782384 pbc="F F F"
C        0.00000000       0.00000000       0.00000000       0.00000000       0.00000000     -17.34366035
C        0.00000000       0.00000000       1.12060606       0.00000000       0.00000000      17.34366035
2
Properties=species:S:1:pos:R:3:forces:R:3 energy=-9.628480757331111 pbc="F F F"
C        0.00000000       0.00000000       0.00000000       0.00000000       0.00000000      -9.38620663
C        0.00000000       0.00000000       1.17939394       0.00000000       0.00000000       9.38620663
2
Properties=species:S:1:pos:R:3:forces:R:3 energy=-9.993357407219072 pbc="F F F"
C        0.00000000       0.00000000       0.00000000       0.00000000       0.00000000      -3.31156993
C        0.00000000       0.00000000       1.23818182       0.00000000       0.00000000       3.31156993
2
Properties=species:S:1:pos:R:3:forces:R:3 energy=-10.047743840437436 pbc="F F F"
C        0.00000000       0.00000000       0.00000000       0.00000000       0.00000000       1.23113799
C        0.00000000       0.00000000       1.29696970       0.00000000       0.00000000      -1.23113799
2
Properties=species:S:1:pos:R:3:forces:R:3 energy=-9.873900020927566 pbc="F F F"
C        0.00000000       0.00000000       0.00000000       0.00000000       0.00000000       4.47938204
C        0.00000000       0.00000000       1.35575758       0.00000000       0.00000000      -4.47938204
2
Properties=species:S:1:pos:R:3:forces:R:3 energy=-9.543833091519762 pbc="F F F"
C        0.00000000       0.00000000       0.00000000       0.00000000       0.00000000       6.56797743
C        0.00000000       0.00000000       1.41454545       0.00000000       0.00000000      -6.56797743
2
Properties=species:S:1:pos:R:3:forces:R:3 energy=-9.121135349847188 pbc="F F F"
C        0.00000000       0.00000000       0.00000000       0.00000000       0.00000000       7.66592932
C        0.00000000       0.00000000       1.47333333       0.00000000       0.00000000      -7.66592932
2
Properties=species:S:1:pos:R:3:forces:R:3 energy=-8.657004763412402 pbc="F F F"
C        0.00000000       0.00000000       0.00000000       0.00000000       0.00000000       8.02590847
C        0.00000000       0.00000000       1.53212121       0.00000000       0.00000000      -8.02590847
2
Properties=species:S:1:pos:R:3:forces:R:3 energy=-8.18586700084507 pbc="F F F"
C        0.00000000       0.00000000       0.00000000       0.00000000       0.00000000       7.95586061
C        0.00000000       0.00000000       1.59090909       0.00000000       0.00000000      -7.95586061
2
Properties=species:S:1:pos:R:3:forces:R:3 energy=-7.724682242138565 pbc="F F F"
C        0.00000000       0.00000000       0.00000000       0.00000000       0.00000000       7.72494221
C        0.00000000       0.00000000       1.64969697       0.00000000       0.00000000      -7.72494221
2
Properties=species:S:1:pos:R:3:forces:R:3 energy=-7.277307201025922 pbc="F F F"
C        0.00000000       0.00000000       0.00000000       0.00000000       0.00000000       7.50427437
C        0.00000000       0.00000000       1.70848485       0.00000000       0.00000000      -7.50427437
2
Properties=species:S:1:pos:R:3:forces:R:3 energy=-6.841289346156283 pbc="F F F"
C        0.00000000       0.00000000       0.00000000       0.00000000       0.00000000       7.33458710
C        0.00000000       0.00000000       1.76727273       0.00000000       0.00000000      -7.33458710
2
Properties=species:S:1:pos:R:3:forces:R:3 energy=-6.415168551916449 pbc="F F F"
C        0.00000000       0.00000000       0.00000000       0.00000000       0.00000000       7.15229654
C        0.00000000       0.00000000       1.82606061       0.00000000       0.00000000      -7.15229654
2
Properties=species:S:1:pos:R:3:forces:R:3 energy=-6.0022855219408315 pbc="F F F"
C        0.00000000       0.00000000       0.00000000       0.00000000       0.00000000       6.87324095
C        0.00000000       0.00000000       1.88484848       0.00000000       0.00000000      -6.87324095
2
Properties=species:S:1:pos:R:3:forces:R:3 energy=-5.609682654344402 pbc="F F F"
C        0.00000000       0.00000000       0.00000000       0.00000000       0.00000000       6.46161556
C        0.00000000       0.00000000       1.94363636       0.00000000       0.00000000      -6.46161556
2
Properties=species:S:1:pos:R:3:forces:R:3 energy=-5.244720144557359 pbc="F F F"
C        0.00000000       0.00000000       0.00000000       0.00000000       0.00000000       5.94037771
C        0.00000000       0.00000000       2.00242424       0.00000000       0.00000000      -5.94037771
2
Properties=species:S:1:pos:R:3:forces:R:3 energy=-4.912425445530597 pbc="F F F"
C        0.00000000       0.00000000       0.00000000       0.00000000       0.00000000       5.35830116
C        0.00000000       0.00000000       2.06121212       0.00000000       0.00000000      -5.35830116
2
Properties=species:S:1:pos:R:3:forces:R:3 energy=-4.615051620938836 pbc="F F F"
C        0.00000000       0.00000000       0.00000000       0.00000000       0.00000000       4.75872564
C        0.00000000       0.00000000       2.12000000       0.00000000       0.00000000      -4.75872564
2
Properties=species:S:1:pos:R:3:forces:R:3 energy=-4.352560103789445 pbc="F F F"
C        0.00000000       0.00000000       0.00000000       0.00000000       0.00000000       4.17706347
C        0.00000000       0.00000000       2.17878788       0.00000000       0.00000000      -4.17706347
2
Properties=species:S:1:pos:R:3:forces:R:3 energy=-4.1230375243274455 pbc="F F F"
C        0.00000000       0.00000000       0.00000000       0.00000000       0.00000000       3.64057589
C        0.00000000       0.00000000       2.23757576       0.00000000       0.00000000      -3.64057589
2
Properties=species:S:1:pos:R:3:forces:R:3 energy=-3.9233005088275923 pbc="F F F"
C        0.00000000       0.00000000       0.00000000       0.00000000       0.00000000       3.16555762
C        0.00000000       0.00000000       2.29636364       0.00000000       0.00000000      -3.16555762
2
Properties=species:S:1:pos:R:3:forces:R:3 energy=-3.7495499593250288 pbc="F F F"
C        0.00000000       0.00000000       0.00000000       0.00000000       0.00000000       2.75636864
C        0.00000000       0.00000000       2.35515152       0.00000000       0.00000000      -2.75636864
2
Properties=species:S:1:pos:R:3:forces:R:3 energy=-3.5980366045043954 pbc="F F F"
C        0.00000000       0.00000000       0.00000000       0.00000000       0.00000000       2.40728688
C        0.00000000       0.00000000       2.41393939       0.00000000       0.00000000      -2.40728688
2
Properties=species:S:1:pos:R:3:forces:R:3 energy=-3.465549075506353 pbc="F F F"
C        0.00000000       0.00000000       0.00000000       0.00000000       0.00000000       2.10722446
C        0.00000000       0.00000000       2.47272727       0.00000000       0.00000000      -2.10722446
2
Properties=species:S:1:pos:R:3:forces:R:3 energy=-3.3495407346286465 pbc="F F F"
C        0.00000000       0.00000000       0.00000000       0.00000000       0.00000000       1.84498572
C        0.00000000       0.00000000       2.53151515       0.00000000       0.00000000      -1.84498572
2
Properties=species:S:1:pos:R:3:forces:R:3 energy=-3.2480395790379295 pbc="F F F"
C        0.00000000       0.00000000       0.00000000       0.00000000       0.00000000       1.61267447
C        0.00000000       0.00000000       2.59030303       0.00000000       0.00000000      -1.61267447
2
Properties=species:S:1:pos:R:3:forces:R:3 energy=-3.159425415936949 pbc="F F F"
C        0.00000000       0.00000000       0.00000000       0.00000000       0.00000000       1.40621662
C        0.00000000       0.00000000       2.64909091       0.00000000       0.00000000      -1.40621662
2
Properties=species:S:1:pos:R:3:forces:R:3 energy=-3.082229950505919 pbc="F F F"
C        0.00000000       0.00000000       0.00000000       0.00000000       0.00000000       1.22393501
C        0.00000000       0.00000000       2.70787879       0.00000000       0.00000000      -1.22393501
2
Properties=species:S:1:pos:R:3:forces:R:3 energy=-3.015064907036693 pbc="F F F"
C        0.00000000       0.00000000       0.00000000       0.00000000       0.00000000       1.06481850
C        0.00000000       0.00000000       2.76666667       0.00000000       0.00000000      -1.06481850
2
Properties=species:S:1:pos:R:3:forces:R:3 energy=-2.9566086069683286 pbc="F F F"
C        0.00000000       0.00000000       0.00000000       0.00000000       0.00000000       0.92734116
C        0.00000000       0.00000000       2.82545455       0.00000000       0.00000000      -0.92734116
2
Properties=species:S:1:pos:R:3:forces:R:3 energy=-2.905652995951882 pbc="F F F"
C        0.00000000       0.00000000       0.00000000       0.00000000       0.00000000       0.80916905
C        0.00000000       0.00000000       2.88424242       0.00000000       0.00000000      -0.80916905
2
Properties=species:S:1:pos:R:3:forces:R:3 energy=-2.861146639974111 pbc="F F F"
C        0.00000000       0.00000000       0.00000000       0.00000000       0.00000000       0.70745009
C        0.00000000       0.00000000       2.94303030       0.00000000       0.00000000      -0.70745009
2
Properties=species:S:1:pos:R:3:forces:R:3 energy=-2.822208588481103 pbc="F F F"
C        0.00000000       0.00000000       0.00000000       0.00000000       0.00000000       0.61927330
C        0.00000000       0.00000000       3.00181818       0.00000000       0.00000000      -0.61927330
2
Properties=species:S:1:pos:R:3:forces:R:3 energy=-2.78812052082037 pbc="F F F"
C        0.00000000       0.00000000       0.00000000       0.00000000       0.00000000       0.54208446
C        0.00000000       0.00000000       3.06060606       0.00000000       0.00000000      -0.54208446
2
Properties=species:S:1:pos:R:3:forces:R:3 energy=-2.758297423923437 pbc="F F F"
C        0.00000000       0.00000000       0.00000000       0.00000000       0.00000000       0.47387987
C        0.00000000       0.00000000       3.11939394       0.00000000       0.00000000      -0.47387987
2
Properties=species:S:1:pos:R:3:forces:R:3 energy=-2.7322556030345564 pbc="F F F"
C        0.00000000       0.00000000       0.00000000       0.00000000       0.00000000       0.41324508
C        0.00000000       0.00000000       3.17818182       0.00000000       0.00000000      -0.41324508
2
Properties=species:S:1:pos:R:3:forces:R:3 energy=-2.7095799755997705 pbc="F F F"
C        0.00000000       0.00000000       0.00000000       0.00000000       0.00000000       0.35925239
C        0.00000000       0.00000000       3.23696970       0.00000000       0.00000000      -0.35925239
2
Properties=species:S:1:pos:R:3:forces:R:3 energy=-2.6898979854393046 pbc="F F F"
C        0.00000000       0.00000000       0.00000000       0.00000000       0.00000000       0.31130850
C        0.00000000       0.00000000       3.29575758       0.00000000       0.00000000      -0.31130850
2
Properties=species:S:1:pos:R:3:forces:R:3 energy=-2.672866895286875 pbc="F F F"
C        0.00000000       0.00000000       0.00000000       0.00000000       0.00000000       0.26901171
C        0.00000000       0.00000000       3.35454545       0.00000000       0.00000000      -0.26901171
2
Properties=species:S:1:pos:R:3:forces:R:3 energy=-2.658164592251243 pbc="F F F"
C        0.00000000       0.00000000       0.00000000       0.00000000       0.00000000       0.23202637
C        0.00000000       0.00000000       3.41333333       0.00000000       0.00000000      -0.23202637
2
Properties=species:S:1:pos:R:3:forces:R:3 energy=-2.645488539107233 pbc="F F F"
C        0.00000000       0.00000000       0.00000000       0.00000000       0.00000000       0.20001540
C        0.00000000       0.00000000       3.47212121       0.00000000       0.00000000      -0.20001540
2
Properties=species:S:1:pos:R:3:forces:R:3 energy=-2.634557785430503 pbc="F F F"
C        0.00000000       0.00000000       0.00000000       0.00000000       0.00000000       0.17260045
C        0.00000000       0.00000000       3.53090909       0.00000000       0.00000000      -0.17260045
2
Properties=species:S:1:pos:R:3:forces:R:3 energy=-2.625113358111551 pbc="F F F"
C        0.00000000       0.00000000       0.00000000       0.00000000       0.00000000       0.14935690
C        0.00000000       0.00000000       3.58969697       0.00000000       0.00000000      -0.14935690
2
Properties=species:S:1:pos:R:3:forces:R:3 energy=-2.6169241006509933 pbc="F F F"
C        0.00000000       0.00000000       0.00000000       0.00000000       0.00000000       0.12982382
C        0.00000000       0.00000000       3.64848485       0.00000000       0.00000000      -0.12982382
2
Properties=species:S:1:pos:R:3:forces:R:3 energy=-2.6097859293934293 pbc="F F F"
C        0.00000000       0.00000000       0.00000000       0.00000000       0.00000000       0.11352891
C        0.00000000       0.00000000       3.70727273       0.00000000       0.00000000      -0.11352891
2
Properties=species:S:1:pos:R:3:forces:R:3 energy=-2.603521261655618 pbc="F F F"
C        0.00000000       0.00000000       0.00000000       0.00000000       0.00000000       0.10001361
C        0.00000000       0.00000000       3.76606061       0.00000000       0.00000000      -0.10001361
2
Properties=species:S:1:pos:R:3:forces:R:3 energy=-2.597980206235462 pbc="F F F"
C        0.00000000       0.00000000       0.00000000       0.00000000       0.00000000       0.08887202
C        0.00000000       0.00000000       3.82484848       0.00000000       0.00000000      -0.08887202
2
Properties=species:S:1:pos:R:3:forces:R:3 energy=-2.5930319724236073 pbc="F F F"
C        0.00000000       0.00000000       0.00000000       0.00000000       0.00000000       0.07977166
C        0.00000000       0.00000000       3.88363636       0.00000000       0.00000000      -0.07977166
2
Properties=species:S:1:pos:R:3:forces:R:3 energy=-2.588565816550156 pbc="F F F"
C        0.00000000       0.00000000       0.00000000       0.00000000       0.00000000       0.07246503
C        0.00000000       0.00000000       3.94242424       0.00000000       0.00000000      -0.07246503
2
Properties=species:S:1:pos:R:3:forces:R:3 energy=-2.5844808414628764 pbc="F F F"
C        0.00000000       0.00000000       0.00000000       0.00000000       0.00000000       0.06677712
C        0.00000000       0.00000000       4.00121212       0.00000000       0.00000000      -0.06677712
2
Properties=species:S:1:pos:R:3:forces:R:3 energy=-2.580685539092957 pbc="F F F"
C        0.00000000       0.00000000       0.00000000       0.00000000       0.00000000       0.06256013
C        0.00000000       0.00000000       4.06000000       0.00000000       0.00000000      -0.06256013
2
Properties=species:S:1:pos:R:3:forces:R:3 energy=-2.5770994977949018 pbc="F F F"
C        0.00000000       0.00000000       0.00000000       0.00000000       0.00000000       0.05963485
C        0.00000000       0.00000000       4.11878788       0.00000000       0.00000000      -0.05963485
2
Properties=species:S:1:pos:R:3:forces:R:3 energy=-2.5736537072893753 pbc="F F F"
C        0.00000000       0.00000000       0.00000000       0.00000000       0.00000000       0.05773440
C        0.00000000       0.00000000       4.17757576       0.00000000       0.00000000      -0.05773440
2
Properties=species:S:1:pos:R:3:forces:R:3 energy=-2.5702984589464895 pbc="F F F"
C        0.00000000       0.00000000       0.00000000       0.00000000       0.00000000       0.05648870
C        0.00000000       0.00000000       4.23636364       0.00000000       0.00000000      -0.05648870
2
Properties=species:S:1:pos:R:3:forces:R:3 energy=-2.5670076840456044 pbc="F F F"
C        0.00000000       0.00000000       0.00000000       0.00000000       0.00000000       0.05545649
C        0.00000000       0.00000000       4.29515152       0.00000000       0.00000000      -0.05545649
2
Properties=species:S:1:pos:R:3:forces:R:3 energy=-2.5637825839069923 pbc="F F F"
C        0.00000000       0.00000000       0.00000000       0.00000000       0.00000000       0.05421514
C        0.00000000       0.00000000       4.35393939       0.00000000       0.00000000      -0.05421514
2
Properties=species:S:1:pos:R:3:forces:R:3 energy=-2.5606437814816356 pbc="F F F"
C        0.00000000       0.00000000       0.00000000       0.00000000       0.00000000       0.05246026
C        0.00000000       0.00000000       4.41272727       0.00000000       0.00000000      -0.05246026
2
Properties=species:S:1:pos:R:3:forces:R:3 energy=-2.557626371185889 pbc="F F F"
C        0.00000000       0.00000000       0.00000000       0.00000000       0.00000000       0.05008735
C        0.00000000       0.00000000       4.47151515       0.00000000       0.00000000      -0.05008735
2
Properties=species:S:1:pos:R:3:forces:R:3 energy=-2.5547646668440387 pbc="F F F"
C        0.00000000       0.00000000       0.00000000       0.00000000       0.00000000       0.04719932
C        0.00000000       0.00000000       4.53030303       0.00000000       0.00000000      -0.04719932
2
Properties=species:S:1:pos:R:3:forces:R:3 energy=-2.552081988891197 pbc="F F F"
C        0.00000000       0.00000000       0.00000000       0.00000000       0.00000000       0.04406018
C        0.00000000       0.00000000       4.58909091       0.00000000       0.00000000      -0.04406018
2
Properties=species:S:1:pos:R:3:forces:R:3 energy=-2.5495832939882 pbc="F F F"
C        0.00000000       0.00000000       0.00000000       0.00000000       0.00000000       0.04097737
C        0.00000000       0.00000000       4.64787879       0.00000000       0.00000000      -0.04097737
2
Properties=species:S:1:pos:R:3:forces:R:3 energy=-2.547257801189772 pbc="F F F"
C        0.00000000       0.00000000       0.00000000       0.00000000       0.00000000       0.03819425
C        0.00000000       0.00000000       4.70666667       0.00000000       0.00000000      -0.03819425
2
Properties=species:S:1:pos:R:3:forces:R:3 energy=-2.545084975375716 pbc="F F F"
C        0.00000000       0.00000000       0.00000000       0.00000000       0.00000000       0.03579072
C        0.00000000       0.00000000       4.76545455       0.00000000       0.00000000      -0.03579072
2
Properties=species:S:1:pos:R:3:forces:R:3 energy=-2.5430443123121016 pbc="F F F"
C        0.00000000       0.00000000       0.00000000       0.00000000       0.00000000       0.03365495
C        0.00000000       0.00000000       4.82424242       0.00000000       0.00000000      -0.03365495
2
Properties=species:S:1:pos:R:3:forces:R:3 energy=-2.541127980577634 pbc="F F F"
C        0.00000000       0.00000000       0.00000000       0.00000000       0.00000000       0.03152706
C        0.00000000       0.00000000       4.88303030       0.00000000       0.00000000      -0.03152706
2
Properties=species:S:1:pos:R:3:forces:R:3 energy=-2.5393429629751116 pbc="F F F"
C        0.00000000       0.00000000       0.00000000       0.00000000       0.00000000       0.02912825
C        0.00000000       0.00000000       4.94181818       0.00000000       0.00000000      -0.02912825
2
Properties=species:S:1:pos:R:3:forces:R:3 energy=-2.537710357312786 pbc="F F F"
C        0.00000000       0.00000000       0.00000000       0.00000000       0.00000000       0.02637205
C        0.00000000       0.00000000       5.00060606       0.00000000       0.00000000      -0.02637205
2
Properties=species:S:1:pos:R:3:forces:R:3 energy=-2.5362439185342573 pbc="F F F"
C        0.00000000       0.00000000       0.00000000       0.00000000       0.00000000       0.02353053
C        0.00000000       0.00000000       5.05939394       0.00000000       0.00000000      -0.02353053
2
Properties=species:S:1:pos:R:3:forces:R:3 energy=-2.5349326458466637 pbc="F F F"
C        0.00000000       0.00000000       0.00000000       0.00000000       0.00000000       0.02123951
C        0.00000000       0.00000000       5.11818182       0.00000000       0.00000000      -0.02123951
2
Properties=species:S:1:pos:R:3:forces:R:3 energy=-2.5337229098407716 pbc="F F F"
C        0.00000000       0.00000000       0.00000000       0.00000000       0.00000000       0.02014797
C        0.00000000       0.00000000       5.17696970       0.00000000       0.00000000      -0.02014797
2
Properties=species:S:1:pos:R:3:forces:R:3 energy=-2.532539670358595 pbc="F F F"
C        0.00000000       0.00000000       0.00000000       0.00000000       0.00000000       0.02025581
C        0.00000000       0.00000000       5.23575758       0.00000000       0.00000000      -0.02025581
2
Properties=species:S:1:pos:R:3:forces:R:3 energy=-2.531341066527447 pbc="F F F"
C        0.00000000       0.00000000       0.00000000       0.00000000       0.00000000       0.02035554
C        0.00000000       0.00000000       5.29454545       0.00000000       0.00000000      -0.02035554
2
Properties=species:S:1:pos:R:3:forces:R:3 energy=-2.530187088240332 pbc="F F F"
C        0.00000000       0.00000000       0.00000000       0.00000000       0.00000000       0.01840583
C        0.00000000       0.00000000       5.35333333       0.00000000       0.00000000      -0.01840583
2
Properties=species:S:1:pos:R:3:forces:R:3 energy=-2.52923241567902 pbc="F F F"
C        0.00000000       0.00000000       0.00000000       0.00000000       0.00000000       0.01377952
C        0.00000000       0.00000000       5.41212121       0.00000000       0.00000000      -0.01377952
2
Properties=species:S:1:pos:R:3:forces:R:3 energy=-2.5285526113779215 pbc="F F F"
C        0.00000000       0.00000000       0.00000000       0.00000000       0.00000000       0.00992203
C        0.00000000       0.00000000       5.47090909       0.00000000       0.00000000      -0.00992203
2
Properties=species:S:1:pos:R:3:forces:R:3 energy=-2.5279834247158552 pbc="F F F"
C        0.00000000       0.00000000       0.00000000       0.00000000       0.00000000       0.00990259
C        0.00000000       0.00000000       5.52969697       0.00000000       0.00000000      -0.00990259
2
Properties=species:S:1:pos:R:3:forces:R:3 energy=-2.5273904428340366 pbc="F F F"
C        0.00000000       0.00000000       0.00000000       0.00000000       0.00000000       0.00996855
C        0.00000000       0.00000000       5.58848485       0.00000000       0.00000000      -0.00996855
2
Properties=species:S:1:pos:R:3:forces:R:3 energy=-2.5268428919395722 pbc="F F F"
C        0.00000000       0.00000000       0.00000000       0.00000000       0.00000000       0.00847581
C        0.00000000       0.00000000       5.64727273       0.00000000       0.00000000      -0.00847581
2
Properties=species:S:1:pos:R:3:forces:R:3 energy=-2.5264012057575145 pbc="F F F"
C        0.00000000       0.00000000       0.00000000       0.00000000       0.00000000       0.00683706
C        0.00000000       0.00000000       5.70606061       0.00000000       0.00000000      -0.00683706
2
Properties=species:S:1:pos:R:3:forces:R:3 energy=-2.5259467954573362 pbc="F F F"
C        0.00000000       0.00000000       0.00000000       0.00000000       0.00000000       0.00947859
C        0.00000000       0.00000000       5.76484848       0.00000000       0.00000000      -0.00947859
2
Properties=species:S:1:pos:R:3:forces:R:3 energy=-2.5252747879465702 pbc="F F F"
C        0.00000000       0.00000000       0.00000000       0.00000000       0.00000000       0.01252530
C        0.00000000       0.00000000       5.82363636       0.00000000       0.00000000      -0.01252530
2
Properties=species:S:1:pos:R:3:forces:R:3 energy=-2.5246202165163383 pbc="F F F"
C        0.00000000       0.00000000       0.00000000       0.00000000       0.00000000       0.00887249
C        0.00000000       0.00000000       5.88242424       0.00000000       0.00000000      -0.00887249
2
Properties=species:S:1:pos:R:3:forces:R:3 energy=-2.524271304569623 pbc="F F F"
C        0.00000000       0.00000000       0.00000000       0.00000000       0.00000000       0.00316888
C        0.00000000       0.00000000       5.94121212       0.00000000       0.00000000      -0.00316888
2
Properties=species:S:1:pos:R:3:forces:R:3 energy=-2.5241803625898944 pbc="F F F"
C        0.00000000       0.00000000       0.00000000       0.00000000       0.00000000       0.00071887
C        0.00000000       0.00000000       6.00000000       0.00000000       0.00000000      -0.00071887
