2
Properties=species:S:1:pos:R:3:forces:R:3 energy=3607.0993926449632 pbc="F F F"
Fe       0.00000000       0.00000000       0.00000000       0.00000000       0.00000000  -52424.85156250
Fe       0.00000000       0.00000000       0.18000000       0.00000000       0.00000000   52424.85156250
2
Properties=species:S:1:pos:R:3:forces:R:3 energy=1710.3734404965257 pbc="F F F"
Fe       0.00000000       0.00000000       0.00000000       0.00000000       0.00000000  -18681.29296875
Fe       0.00000000       0.00000000       0.23878788       0.00000000       0.00000000   18681.29296875
2
Properties=species:S:1:pos:R:3:forces:R:3 energy=1002.4343535856311 pbc="F F F"
Fe       0.00000000       0.00000000       0.00000000       0.00000000       0.00000000   -7168.90917969
Fe       0.00000000       0.00000000       0.29757576       0.00000000       0.00000000    7168.90917969
2
Properties=species:S:1:pos:R:3:forces:R:3 energy=745.5099151090686 pbc="F F F"
Fe       0.00000000       0.00000000       0.00000000       0.00000000       0.00000000   -2177.92138672
Fe       0.00000000       0.00000000       0.35636364       0.00000000       0.00000000    2177.92138672
2
Properties=species:S:1:pos:R:3:forces:R:3 energy=693.830166580248 pbc="F F F"
Fe       0.00000000       0.00000000       0.00000000       0.00000000       0.00000000     131.63641357
Fe       0.00000000       0.00000000       0.41515152       0.00000000       0.00000000    -131.63641357
2
Properties=species:S:1:pos:R:3:forces:R:3 energy=730.7729766515131 pbc="F F F"
Fe       0.00000000       0.00000000       0.00000000       0.00000000       0.00000000     880.01403809
Fe       0.00000000       0.00000000       0.47393939       0.00000000       0.00000000    -880.01403809
2
Properties=species:S:1:pos:R:3:forces:R:3 energy=771.1359527447388 pbc="F F F"
Fe       0.00000000       0.00000000       0.00000000       0.00000000       0.00000000     305.71215820
Fe       0.00000000       0.00000000       0.53272727       0.00000000       0.00000000    -305.71215820
2
Properties=species:S:1:pos:R:3:forces:R:3 energy=728.7049225029795 pbc="F F F"
Fe       0.00000000       0.00000000       0.00000000       0.00000000       0.00000000   -1704.62463379
Fe       0.00000000       0.00000000       0.59151515       0.00000000       0.00000000    1704.62463379
2
Properties=species:S:1:pos:R:3:forces:R:3 energy=574.0465973678556 pbc="F F F"
Fe       0.00000000       0.00000000       0.00000000       0.00000000       0.00000000   -2268.73071289
Fe       0.00000000       0.00000000       0.65030303       0.00000000       0.00000000    2268.73071289
2
Properties=species:S:1:pos:R:3:forces:R:3 energy=426.9432039050349 pbc="F F F"
Fe       0.00000000       0.00000000       0.00000000       0.00000000       0.00000000   -2634.03466797
Fe       0.00000000       0.00000000       0.70909091       0.00000000       0.00000000    2634.03466797
2
Properties=species:S:1:pos:R:3:forces:R:3 energy=275.7380648842629 pbc="F F F"
Fe       0.00000000       0.00000000       0.00000000       0.00000000       0.00000000   -2348.31616211
Fe       0.00000000       0.00000000       0.76787879       0.00000000       0.00000000    2348.31616211
2
Properties=species:S:1:pos:R:3:forces:R:3 energy=163.91944631258943 pbc="F F F"
Fe       0.00000000       0.00000000       0.00000000       0.00000000       0.00000000   -1459.60839844
Fe       0.00000000       0.00000000       0.82666667       0.00000000       0.00000000    1459.60839844
2
Properties=species:S:1:pos:R:3:forces:R:3 energy=102.44004596926344 pbc="F F F"
Fe       0.00000000       0.00000000       0.00000000       0.00000000       0.00000000    -771.79479980
Fe       0.00000000       0.00000000       0.88545455       0.00000000       0.00000000     771.79479980
2
Properties=species:S:1:pos:R:3:forces:R:3 energy=65.09496123703734 pbc="F F F"
Fe       0.00000000       0.00000000       0.00000000       0.00000000       0.00000000    -514.71008301
Fe       0.00000000       0.00000000       0.94424242       0.00000000       0.00000000     514.71008301
2
Properties=species:S:1:pos:R:3:forces:R:3 energy=40.88820902381008 pbc="F F F"
Fe       0.00000000       0.00000000       0.00000000       0.00000000       0.00000000    -320.34777832
Fe       0.00000000       0.00000000       1.00303030       0.00000000       0.00000000     320.34777832
2
Properties=species:S:1:pos:R:3:forces:R:3 energy=25.922566855010245 pbc="F F F"
Fe       0.00000000       0.00000000       0.00000000       0.00000000       0.00000000    -199.59144592
Fe       0.00000000       0.00000000       1.06181818       0.00000000       0.00000000     199.59144592
2
Properties=species:S:1:pos:R:3:forces:R:3 energy=16.45313694525142 pbc="F F F"
Fe       0.00000000       0.00000000       0.00000000       0.00000000       0.00000000    -128.91571045
Fe       0.00000000       0.00000000       1.12060606       0.00000000       0.00000000     128.91571045
2
Properties=species:S:1:pos:R:3:forces:R:3 energy=10.168250952390482 pbc="F F F"
Fe       0.00000000       0.00000000       0.00000000       0.00000000       0.00000000     -88.83570862
Fe       0.00000000       0.00000000       1.17939394       0.00000000       0.00000000      88.83570862
2
Properties=species:S:1:pos:R:3:forces:R:3 energy=5.66756077546571 pbc="F F F"
Fe       0.00000000       0.00000000       0.00000000       0.00000000       0.00000000     -66.27843475
Fe       0.00000000       0.00000000       1.23818182       0.00000000       0.00000000      66.27843475
2
Properties=species:S:1:pos:R:3:forces:R:3 energy=2.2091355320637738 pbc="F F F"
Fe       0.00000000       0.00000000       0.00000000       0.00000000       0.00000000     -52.38184738
Fe       0.00000000       0.00000000       1.29696970       0.00000000       0.00000000      52.38184738
2
Properties=species:S:1:pos:R:3:forces:R:3 energy=-0.5743976534282726 pbc="F F F"
Fe       0.00000000       0.00000000       0.00000000       0.00000000       0.00000000     -42.76396942
Fe       0.00000000       0.00000000       1.35575758       0.00000000       0.00000000      42.76396942
2
Properties=species:S:1:pos:R:3:forces:R:3 energy=-2.848285639973274 pbc="F F F"
Fe       0.00000000       0.00000000       0.00000000       0.00000000       0.00000000     -34.69296265
Fe       0.00000000       0.00000000       1.41454545       0.00000000       0.00000000      34.69296265
2
Properties=species:S:1:pos:R:3:forces:R:3 energy=-4.657323798172311 pbc="F F F"
Fe       0.00000000       0.00000000       0.00000000       0.00000000       0.00000000     -26.88689423
Fe       0.00000000       0.00000000       1.47333333       0.00000000       0.00000000      26.88689423
2
Properties=species:S:1:pos:R:3:forces:R:3 energy=-6.022354553497554 pbc="F F F"
Fe       0.00000000       0.00000000       0.00000000       0.00000000       0.00000000     -19.74577522
Fe       0.00000000       0.00000000       1.53212121       0.00000000       0.00000000      19.74577522
2
Properties=species:S:1:pos:R:3:forces:R:3 energy=-7.008243832543836 pbc="F F F"
Fe       0.00000000       0.00000000       0.00000000       0.00000000       0.00000000     -14.07000160
Fe       0.00000000       0.00000000       1.59090909       0.00000000       0.00000000      14.07000160
2
Properties=species:S:1:pos:R:3:forces:R:3 energy=-7.707941903369115 pbc="F F F"
Fe       0.00000000       0.00000000       0.00000000       0.00000000       0.00000000      -9.97671318
Fe       0.00000000       0.00000000       1.64969697       0.00000000       0.00000000       9.97671318
2
Properties=species:S:1:pos:R:3:forces:R:3 energy=-8.205817048738725 pbc="F F F"
Fe       0.00000000       0.00000000       0.00000000       0.00000000       0.00000000      -7.13586426
Fe       0.00000000       0.00000000       1.70848485       0.00000000       0.00000000       7.13586426
2
Properties=species:S:1:pos:R:3:forces:R:3 energy=-8.563900873515296 pbc="F F F"
Fe       0.00000000       0.00000000       0.00000000       0.00000000       0.00000000      -5.16388798
Fe       0.00000000       0.00000000       1.76727273       0.00000000       0.00000000       5.16388798
2
Properties=species:S:1:pos:R:3:forces:R:3 energy=-8.824146369357342 pbc="F F F"
Fe       0.00000000       0.00000000       0.00000000       0.00000000       0.00000000      -3.76491809
Fe       0.00000000       0.00000000       1.82606061       0.00000000       0.00000000       3.76491809
2
Properties=species:S:1:pos:R:3:forces:R:3 energy=-9.01345757872886 pbc="F F F"
Fe       0.00000000       0.00000000       0.00000000       0.00000000       0.00000000      -2.71984553
Fe       0.00000000       0.00000000       1.88484848       0.00000000       0.00000000       2.71984553
2
Properties=species:S:1:pos:R:3:forces:R:3 energy=-9.147816856426394 pbc="F F F"
Fe       0.00000000       0.00000000       0.00000000       0.00000000       0.00000000      -1.87485230
Fe       0.00000000       0.00000000       1.94363636       0.00000000       0.00000000       1.87485230
2
Properties=species:S:1:pos:R:3:forces:R:3 energy=-9.235928066866801 pbc="F F F"
Fe       0.00000000       0.00000000       0.00000000       0.00000000       0.00000000      -1.13535166
Fe       0.00000000       0.00000000       2.00242424       0.00000000       0.00000000       1.13535166
2
Properties=species:S:1:pos:R:3:forces:R:3 energy=-9.282521077945175 pbc="F F F"
Fe       0.00000000       0.00000000       0.00000000       0.00000000       0.00000000      -0.45919755
Fe       0.00000000       0.00000000       2.06121212       0.00000000       0.00000000       0.45919755
2
Properties=species:S:1:pos:R:3:forces:R:3 energy=-9.291091967809445 pbc="F F F"
Fe       0.00000000       0.00000000       0.00000000       0.00000000       0.00000000       0.15636186
Fe       0.00000000       0.00000000       2.12000000       0.00000000       0.00000000      -0.15636186
2
Properties=species:S:1:pos:R:3:forces:R:3 energy=-9.265666576788567 pbc="F F F"
Fe       0.00000000       0.00000000       0.00000000       0.00000000       0.00000000       0.69384629
Fe       0.00000000       0.00000000       2.17878788       0.00000000       0.00000000      -0.69384629
2
Properties=species:S:1:pos:R:3:forces:R:3 energy=-9.211439676342584 pbc="F F F"
Fe       0.00000000       0.00000000       0.00000000       0.00000000       0.00000000       1.13329899
Fe       0.00000000       0.00000000       2.23757576       0.00000000       0.00000000      -1.13329899
2
Properties=species:S:1:pos:R:3:forces:R:3 energy=-9.134586723598824 pbc="F F F"
Fe       0.00000000       0.00000000       0.00000000       0.00000000       0.00000000       1.46240544
Fe       0.00000000       0.00000000       2.29636364       0.00000000       0.00000000      -1.46240544
2
Properties=species:S:1:pos:R:3:forces:R:3 energy=-9.041714453790537 pbc="F F F"
Fe       0.00000000       0.00000000       0.00000000       0.00000000       0.00000000       1.67854905
Fe       0.00000000       0.00000000       2.35515152       0.00000000       0.00000000      -1.67854905
2
Properties=species:S:1:pos:R:3:forces:R:3 energy=-8.939354189178683 pbc="F F F"
Fe       0.00000000       0.00000000       0.00000000       0.00000000       0.00000000       1.78641975
Fe       0.00000000       0.00000000       2.41393939       0.00000000       0.00000000      -1.78641975
2
Properties=species:S:1:pos:R:3:forces:R:3 energy=-8.83360359847044 pbc="F F F"
Fe       0.00000000       0.00000000       0.00000000       0.00000000       0.00000000       1.79628193
Fe       0.00000000       0.00000000       2.47272727       0.00000000       0.00000000      -1.79628193
2
Properties=species:S:1:pos:R:3:forces:R:3 energy=-8.729591794004946 pbc="F F F"
Fe       0.00000000       0.00000000       0.00000000       0.00000000       0.00000000       1.73448956
Fe       0.00000000       0.00000000       2.53151515       0.00000000       0.00000000      -1.73448956
2
Properties=species:S:1:pos:R:3:forces:R:3 energy=-8.629789420539563 pbc="F F F"
Fe       0.00000000       0.00000000       0.00000000       0.00000000       0.00000000       1.66646945
Fe       0.00000000       0.00000000       2.59030303       0.00000000       0.00000000      -1.66646945
2
Properties=species:S:1:pos:R:3:forces:R:3 energy=-8.53278444812892 pbc="F F F"
Fe       0.00000000       0.00000000       0.00000000       0.00000000       0.00000000       1.63837111
Fe       0.00000000       0.00000000       2.64909091       0.00000000       0.00000000      -1.63837111
2
Properties=species:S:1:pos:R:3:forces:R:3 energy=-8.437236343681842 pbc="F F F"
Fe       0.00000000       0.00000000       0.00000000       0.00000000       0.00000000       1.60761786
Fe       0.00000000       0.00000000       2.70787879       0.00000000       0.00000000      -1.60761786
2
Properties=species:S:1:pos:R:3:forces:R:3 energy=-8.344379870783927 pbc="F F F"
Fe       0.00000000       0.00000000       0.00000000       0.00000000       0.00000000       1.54698145
Fe       0.00000000       0.00000000       2.76666667       0.00000000       0.00000000      -1.54698145
2
Properties=species:S:1:pos:R:3:forces:R:3 energy=-8.255712216336208 pbc="F F F"
Fe       0.00000000       0.00000000       0.00000000       0.00000000       0.00000000       1.46763885
Fe       0.00000000       0.00000000       2.82545455       0.00000000       0.00000000      -1.46763885
2
Properties=species:S:1:pos:R:3:forces:R:3 energy=-8.171956165287803 pbc="F F F"
Fe       0.00000000       0.00000000       0.00000000       0.00000000       0.00000000       1.38124025
Fe       0.00000000       0.00000000       2.88424242       0.00000000       0.00000000      -1.38124025
2
Properties=species:S:1:pos:R:3:forces:R:3 energy=-8.09333127414591 pbc="F F F"
Fe       0.00000000       0.00000000       0.00000000       0.00000000       0.00000000       1.29379380
Fe       0.00000000       0.00000000       2.94303030       0.00000000       0.00000000      -1.29379380
2
Properties=species:S:1:pos:R:3:forces:R:3 energy=-8.0197818758465 pbc="F F F"
Fe       0.00000000       0.00000000       0.00000000       0.00000000       0.00000000       1.20911360
Fe       0.00000000       0.00000000       3.00181818       0.00000000       0.00000000      -1.20911360
2
Properties=species:S:1:pos:R:3:forces:R:3 energy=-7.951058909148499 pbc="F F F"
Fe       0.00000000       0.00000000       0.00000000       0.00000000       0.00000000       1.12999332
Fe       0.00000000       0.00000000       3.06060606       0.00000000       0.00000000      -1.12999332
2
Properties=species:S:1:pos:R:3:forces:R:3 energy=-7.886783164166825 pbc="F F F"
Fe       0.00000000       0.00000000       0.00000000       0.00000000       0.00000000       1.05793309
Fe       0.00000000       0.00000000       3.11939394       0.00000000       0.00000000      -1.05793309
2
Properties=species:S:1:pos:R:3:forces:R:3 energy=-7.826531584971843 pbc="F F F"
Fe       0.00000000       0.00000000       0.00000000       0.00000000       0.00000000       0.99295920
Fe       0.00000000       0.00000000       3.17818182       0.00000000       0.00000000      -0.99295920
2
Properties=species:S:1:pos:R:3:forces:R:3 energy=-7.76991730322865 pbc="F F F"
Fe       0.00000000       0.00000000       0.00000000       0.00000000       0.00000000       0.93399173
Fe       0.00000000       0.00000000       3.23696970       0.00000000       0.00000000      -0.93399173
2
Properties=species:S:1:pos:R:3:forces:R:3 energy=-7.71662883055104 pbc="F F F"
Fe       0.00000000       0.00000000       0.00000000       0.00000000       0.00000000       0.87953985
Fe       0.00000000       0.00000000       3.29575758       0.00000000       0.00000000      -0.87953985
2
Properties=species:S:1:pos:R:3:forces:R:3 energy=-7.666441475586894 pbc="F F F"
Fe       0.00000000       0.00000000       0.00000000       0.00000000       0.00000000       0.82832092
Fe       0.00000000       0.00000000       3.35454545       0.00000000       0.00000000      -0.82832092
2
Properties=species:S:1:pos:R:3:forces:R:3 energy=-7.619190837542283 pbc="F F F"
Fe       0.00000000       0.00000000       0.00000000       0.00000000       0.00000000       0.77953297
Fe       0.00000000       0.00000000       3.41333333       0.00000000       0.00000000      -0.77953297
2
Properties=species:S:1:pos:R:3:forces:R:3 energy=-7.574746687843726 pbc="F F F"
Fe       0.00000000       0.00000000       0.00000000       0.00000000       0.00000000       0.73280871
Fe       0.00000000       0.00000000       3.47212121       0.00000000       0.00000000      -0.73280871
2
Properties=species:S:1:pos:R:3:forces:R:3 energy=-7.5329935591988795 pbc="F F F"
Fe       0.00000000       0.00000000       0.00000000       0.00000000       0.00000000       0.68799764
Fe       0.00000000       0.00000000       3.53090909       0.00000000       0.00000000      -0.68799764
2
Properties=species:S:1:pos:R:3:forces:R:3 energy=-7.493820280521631 pbc="F F F"
Fe       0.00000000       0.00000000       0.00000000       0.00000000       0.00000000       0.64495939
Fe       0.00000000       0.00000000       3.58969697       0.00000000       0.00000000      -0.64495939
2
Properties=species:S:1:pos:R:3:forces:R:3 energy=-7.457130606733754 pbc="F F F"
Fe       0.00000000       0.00000000       0.00000000       0.00000000       0.00000000       0.60348547
Fe       0.00000000       0.00000000       3.64848485       0.00000000       0.00000000      -0.60348547
2
Properties=species:S:1:pos:R:3:forces:R:3 energy=-7.422839880904804 pbc="F F F"
Fe       0.00000000       0.00000000       0.00000000       0.00000000       0.00000000       0.56330180
Fe       0.00000000       0.00000000       3.70727273       0.00000000       0.00000000      -0.56330180
2
Properties=species:S:1:pos:R:3:forces:R:3 energy=-7.390879420821202 pbc="F F F"
Fe       0.00000000       0.00000000       0.00000000       0.00000000       0.00000000       0.52415943
Fe       0.00000000       0.00000000       3.76606061       0.00000000       0.00000000      -0.52415943
2
Properties=species:S:1:pos:R:3:forces:R:3 energy=-7.361194150639558 pbc="F F F"
Fe       0.00000000       0.00000000       0.00000000       0.00000000       0.00000000       0.48591319
Fe       0.00000000       0.00000000       3.82484848       0.00000000       0.00000000      -0.48591319
2
Properties=species:S:1:pos:R:3:forces:R:3 energy=-7.333730222127489 pbc="F F F"
Fe       0.00000000       0.00000000       0.00000000       0.00000000       0.00000000       0.44856891
Fe       0.00000000       0.00000000       3.88363636       0.00000000       0.00000000      -0.44856891
2
Properties=species:S:1:pos:R:3:forces:R:3 energy=-7.30843218215107 pbc="F F F"
Fe       0.00000000       0.00000000       0.00000000       0.00000000       0.00000000       0.41229984
Fe       0.00000000       0.00000000       3.94242424       0.00000000       0.00000000      -0.41229984
2
Properties=species:S:1:pos:R:3:forces:R:3 energy=-7.285227647361505 pbc="F F F"
Fe       0.00000000       0.00000000       0.00000000       0.00000000       0.00000000       0.37741056
Fe       0.00000000       0.00000000       4.00121212       0.00000000       0.00000000      -0.37741056
2
Properties=species:S:1:pos:R:3:forces:R:3 energy=-7.264023495833507 pbc="F F F"
Fe       0.00000000       0.00000000       0.00000000       0.00000000       0.00000000       0.34428906
Fe       0.00000000       0.00000000       4.06000000       0.00000000       0.00000000      -0.34428906
2
Properties=species:S:1:pos:R:3:forces:R:3 energy=-7.244704754999872 pbc="F F F"
Fe       0.00000000       0.00000000       0.00000000       0.00000000       0.00000000       0.31334406
Fe       0.00000000       0.00000000       4.11878788       0.00000000       0.00000000      -0.31334406
2
Properties=species:S:1:pos:R:3:forces:R:3 energy=-7.227131772306755 pbc="F F F"
Fe       0.00000000       0.00000000       0.00000000       0.00000000       0.00000000       0.28493538
Fe       0.00000000       0.00000000       4.17757576       0.00000000       0.00000000      -0.28493538
2
Properties=species:S:1:pos:R:3:forces:R:3 energy=-7.211148109201274 pbc="F F F"
Fe       0.00000000       0.00000000       0.00000000       0.00000000       0.00000000       0.25931957
Fe       0.00000000       0.00000000       4.23636364       0.00000000       0.00000000      -0.25931957
2
Properties=species:S:1:pos:R:3:forces:R:3 energy=-7.196585220804068 pbc="F F F"
Fe       0.00000000       0.00000000       0.00000000       0.00000000       0.00000000       0.23659968
Fe       0.00000000       0.00000000       4.29515152       0.00000000       0.00000000      -0.23659968
2
Properties=species:S:1:pos:R:3:forces:R:3 energy=-7.183274269132305 pbc="F F F"
Fe       0.00000000       0.00000000       0.00000000       0.00000000       0.00000000       0.21671718
Fe       0.00000000       0.00000000       4.35393939       0.00000000       0.00000000      -0.21671718
2
Properties=species:S:1:pos:R:3:forces:R:3 energy=-7.171053533914482 pbc="F F F"
Fe       0.00000000       0.00000000       0.00000000       0.00000000       0.00000000       0.19944401
Fe       0.00000000       0.00000000       4.41272727       0.00000000       0.00000000      -0.19944401
2
Properties=species:S:1:pos:R:3:forces:R:3 energy=-7.159779825004 pbc="F F F"
Fe       0.00000000       0.00000000       0.00000000       0.00000000       0.00000000       0.18442830
Fe       0.00000000       0.00000000       4.47151515       0.00000000       0.00000000      -0.18442830
2
Properties=species:S:1:pos:R:3:forces:R:3 energy=-7.149333509008177 pbc="F F F"
Fe       0.00000000       0.00000000       0.00000000       0.00000000       0.00000000       0.17122725
Fe       0.00000000       0.00000000       4.53030303       0.00000000       0.00000000      -0.17122725
2
Properties=species:S:1:pos:R:3:forces:R:3 energy=-7.139621777456271 pbc="F F F"
Fe       0.00000000       0.00000000       0.00000000       0.00000000       0.00000000       0.15935968
Fe       0.00000000       0.00000000       4.58909091       0.00000000       0.00000000      -0.15935968
2
Properties=species:S:1:pos:R:3:forces:R:3 energy=-7.1305799886119265 pbc="F F F"
Fe       0.00000000       0.00000000       0.00000000       0.00000000       0.00000000       0.14835177
Fe       0.00000000       0.00000000       4.64787879       0.00000000       0.00000000      -0.14835177
2
Properties=species:S:1:pos:R:3:forces:R:3 energy=-7.122170583918157 pbc="F F F"
Fe       0.00000000       0.00000000       0.00000000       0.00000000       0.00000000       0.13777582
Fe       0.00000000       0.00000000       4.70666667       0.00000000       0.00000000      -0.13777582
2
Properties=species:S:1:pos:R:3:forces:R:3 energy=-7.114379251125325 pbc="F F F"
Fe       0.00000000       0.00000000       0.00000000       0.00000000       0.00000000       0.12729689
Fe       0.00000000       0.00000000       4.76545455       0.00000000       0.00000000      -0.12729689
2
Properties=species:S:1:pos:R:3:forces:R:3 energy=-7.107205365373217 pbc="F F F"
Fe       0.00000000       0.00000000       0.00000000       0.00000000       0.00000000       0.11671753
Fe       0.00000000       0.00000000       4.82424242       0.00000000       0.00000000      -0.11671753
2
Properties=species:S:1:pos:R:3:forces:R:3 energy=-7.100658145983381 pbc="F F F"
Fe       0.00000000       0.00000000       0.00000000       0.00000000       0.00000000       0.10603542
Fe       0.00000000       0.00000000       4.88303030       0.00000000       0.00000000      -0.10603542
2
Properties=species:S:1:pos:R:3:forces:R:3 energy=-7.094736581781155 pbc="F F F"
Fe       0.00000000       0.00000000       0.00000000       0.00000000       0.00000000       0.09546366
Fe       0.00000000       0.00000000       4.94181818       0.00000000       0.00000000      -0.09546366
2
Properties=species:S:1:pos:R:3:forces:R:3 energy=-7.089423308240334 pbc="F F F"
Fe       0.00000000       0.00000000       0.00000000       0.00000000       0.00000000       0.08543836
Fe       0.00000000       0.00000000       5.00060606       0.00000000       0.00000000      -0.08543836
2
Properties=species:S:1:pos:R:3:forces:R:3 energy=-7.0846689288777505 pbc="F F F"
Fe       0.00000000       0.00000000       0.00000000       0.00000000       0.00000000       0.07651590
Fe       0.00000000       0.00000000       5.05939394       0.00000000       0.00000000      -0.07651590
2
Properties=species:S:1:pos:R:3:forces:R:3 energy=-7.080394831926719 pbc="F F F"
Fe       0.00000000       0.00000000       0.00000000       0.00000000       0.00000000       0.06920177
Fe       0.00000000       0.00000000       5.11818182       0.00000000       0.00000000      -0.06920177
2
Properties=species:S:1:pos:R:3:forces:R:3 energy=-7.0764971127402445 pbc="F F F"
Fe       0.00000000       0.00000000       0.00000000       0.00000000       0.00000000       0.06369005
Fe       0.00000000       0.00000000       5.17696970       0.00000000       0.00000000      -0.06369005
2
Properties=species:S:1:pos:R:3:forces:R:3 energy=-7.072877628394937 pbc="F F F"
Fe       0.00000000       0.00000000       0.00000000       0.00000000       0.00000000       0.05963171
Fe       0.00000000       0.00000000       5.23575758       0.00000000       0.00000000      -0.05963171
2
Properties=species:S:1:pos:R:3:forces:R:3 energy=-7.069475952116249 pbc="F F F"
Fe       0.00000000       0.00000000       0.00000000       0.00000000       0.00000000       0.05607726
Fe       0.00000000       0.00000000       5.29454545       0.00000000       0.00000000      -0.05607726
2
Properties=species:S:1:pos:R:3:forces:R:3 energy=-7.066297143875249 pbc="F F F"
Fe       0.00000000       0.00000000       0.00000000       0.00000000       0.00000000       0.05190103
Fe       0.00000000       0.00000000       5.35333333       0.00000000       0.00000000      -0.05190103
2
Properties=species:S:1:pos:R:3:forces:R:3 energy=-7.0633922349111815 pbc="F F F"
Fe       0.00000000       0.00000000       0.00000000       0.00000000       0.00000000       0.04683943
Fe       0.00000000       0.00000000       5.41212121       0.00000000       0.00000000      -0.04683943
2
Properties=species:S:1:pos:R:3:forces:R:3 energy=-7.060783852222163 pbc="F F F"
Fe       0.00000000       0.00000000       0.00000000       0.00000000       0.00000000       0.04204915
Fe       0.00000000       0.00000000       5.47090909       0.00000000       0.00000000      -0.04204915
2
Properties=species:S:1:pos:R:3:forces:R:3 energy=-7.058435317600652 pbc="F F F"
Fe       0.00000000       0.00000000       0.00000000       0.00000000       0.00000000       0.03782423
Fe       0.00000000       0.00000000       5.52969697       0.00000000       0.00000000      -0.03782423
2
Properties=species:S:1:pos:R:3:forces:R:3 energy=-7.056356069827101 pbc="F F F"
Fe       0.00000000       0.00000000       0.00000000       0.00000000       0.00000000       0.03271399
Fe       0.00000000       0.00000000       5.58848485       0.00000000       0.00000000      -0.03271399
2
Properties=species:S:1:pos:R:3:forces:R:3 energy=-7.05459882265394 pbc="F F F"
Fe       0.00000000       0.00000000       0.00000000       0.00000000       0.00000000       0.02715444
Fe       0.00000000       0.00000000       5.64727273       0.00000000       0.00000000      -0.02715444
2
Properties=species:S:1:pos:R:3:forces:R:3 energy=-7.053142293750922 pbc="F F F"
Fe       0.00000000       0.00000000       0.00000000       0.00000000       0.00000000       0.02268419
Fe       0.00000000       0.00000000       5.70606061       0.00000000       0.00000000      -0.02268419
2
Properties=species:S:1:pos:R:3:forces:R:3 energy=-7.05189030963552 pbc="F F F"
Fe       0.00000000       0.00000000       0.00000000       0.00000000       0.00000000       0.02012308
Fe       0.00000000       0.00000000       5.76484848       0.00000000       0.00000000      -0.02012308
2
Properties=species:S:1:pos:R:3:forces:R:3 energy=-7.0507776674818246 pbc="F F F"
Fe       0.00000000       0.00000000       0.00000000       0.00000000       0.00000000       0.01750411
Fe       0.00000000       0.00000000       5.82363636       0.00000000       0.00000000      -0.01750411
2
Properties=species:S:1:pos:R:3:forces:R:3 energy=-7.049862171027719 pbc="F F F"
Fe       0.00000000       0.00000000       0.00000000       0.00000000       0.00000000       0.01357444
Fe       0.00000000       0.00000000       5.88242424       0.00000000       0.00000000      -0.01357444
2
Properties=species:S:1:pos:R:3:forces:R:3 energy=-7.049173532592397 pbc="F F F"
Fe       0.00000000       0.00000000       0.00000000       0.00000000       0.00000000       0.01003697
Fe       0.00000000       0.00000000       5.94121212       0.00000000       0.00000000      -0.01003697
2
Properties=species:S:1:pos:R:3:forces:R:3 energy=-7.048644203178025 pbc="F F F"
Fe       0.00000000       0.00000000       0.00000000       0.00000000       0.00000000       0.00836448
Fe       0.00000000       0.00000000       6.00000000       0.00000000       0.00000000      -0.00836448
