2
Properties=species:S:1:pos:R:3:forces:R:3 energy=5351.739554075865 pbc="F F F"
Ga       0.00000000       0.00000000       0.00000000       0.00000000       0.00000000  -69319.32812500
Ga       0.00000000       0.00000000       0.18000000       0.00000000       0.00000000   69319.32812500
2
Properties=species:S:1:pos:R:3:forces:R:3 energy=2842.6716829821157 pbc="F F F"
Ga       0.00000000       0.00000000       0.00000000       0.00000000       0.00000000  -24938.55859375
Ga       0.00000000       0.00000000       0.23878788       0.00000000       0.00000000   24938.55859375
2
Properties=species:S:1:pos:R:3:forces:R:3 energy=1868.2847200978263 pbc="F F F"
Ga       0.00000000       0.00000000       0.00000000       0.00000000       0.00000000  -10599.12011719
Ga       0.00000000       0.00000000       0.29757576       0.00000000       0.00000000   10599.12011719
2
Properties=species:S:1:pos:R:3:forces:R:3 energy=1431.8397738087638 pbc="F F F"
Ga       0.00000000       0.00000000       0.00000000       0.00000000       0.00000000   -5052.16357422
Ga       0.00000000       0.00000000       0.35636364       0.00000000       0.00000000    5052.16357422
2
Properties=species:S:1:pos:R:3:forces:R:3 energy=1202.6071077994745 pbc="F F F"
Ga       0.00000000       0.00000000       0.00000000       0.00000000       0.00000000   -3015.21826172
Ga       0.00000000       0.00000000       0.41515152       0.00000000       0.00000000    3015.21826172
2
Properties=species:S:1:pos:R:3:forces:R:3 energy=1056.3917757777278 pbc="F F F"
Ga       0.00000000       0.00000000       0.00000000       0.00000000       0.00000000   -2117.38647461
Ga       0.00000000       0.00000000       0.47393939       0.00000000       0.00000000    2117.38647461
2
Properties=species:S:1:pos:R:3:forces:R:3 energy=940.4163729678714 pbc="F F F"
Ga       0.00000000       0.00000000       0.00000000       0.00000000       0.00000000   -1932.47216797
Ga       0.00000000       0.00000000       0.53272727       0.00000000       0.00000000    1932.47216797
2
Properties=species:S:1:pos:R:3:forces:R:3 energy=820.8011996660415 pbc="F F F"
Ga       0.00000000       0.00000000       0.00000000       0.00000000       0.00000000   -2158.31079102
Ga       0.00000000       0.00000000       0.59151515       0.00000000       0.00000000    2158.31079102
2
Properties=species:S:1:pos:R:3:forces:R:3 energy=681.6370761942417 pbc="F F F"
Ga       0.00000000       0.00000000       0.00000000       0.00000000       0.00000000   -2612.60156250
Ga       0.00000000       0.00000000       0.65030303       0.00000000       0.00000000    2612.60156250
2
Properties=species:S:1:pos:R:3:forces:R:3 energy=517.1774815690495 pbc="F F F"
Ga       0.00000000       0.00000000       0.00000000       0.00000000       0.00000000   -2864.03100586
Ga       0.00000000       0.00000000       0.70909091       0.00000000       0.00000000    2864.03100586
2
Properties=species:S:1:pos:R:3:forces:R:3 energy=369.7661047616443 pbc="F F F"
Ga       0.00000000       0.00000000       0.00000000       0.00000000       0.00000000   -2156.26489258
Ga       0.00000000       0.00000000       0.76787879       0.00000000       0.00000000    2156.26489258
2
Properties=species:S:1:pos:R:3:forces:R:3 energy=258.30489282835657 pbc="F F F"
Ga       0.00000000       0.00000000       0.00000000       0.00000000       0.00000000   -1645.29003906
Ga       0.00000000       0.00000000       0.82666667       0.00000000       0.00000000    1645.29003906
2
Properties=species:S:1:pos:R:3:forces:R:3 energy=177.56154597400223 pbc="F F F"
Ga       0.00000000       0.00000000       0.00000000       0.00000000       0.00000000   -1110.79357910
Ga       0.00000000       0.00000000       0.88545455       0.00000000       0.00000000    1110.79357910
2
Properties=species:S:1:pos:R:3:forces:R:3 energy=123.9468155825364 pbc="F F F"
Ga       0.00000000       0.00000000       0.00000000       0.00000000       0.00000000    -740.46014404
Ga       0.00000000       0.00000000       0.94424242       0.00000000       0.00000000     740.46014404
2
Properties=species:S:1:pos:R:3:forces:R:3 energy=87.66766428058999 pbc="F F F"
Ga       0.00000000       0.00000000       0.00000000       0.00000000       0.00000000    -513.04791260
Ga       0.00000000       0.00000000       1.00303030       0.00000000       0.00000000     513.04791260
2
Properties=species:S:1:pos:R:3:forces:R:3 energy=62.21382675583508 pbc="F F F"
Ga       0.00000000       0.00000000       0.00000000       0.00000000       0.00000000    -359.34561157
Ga       0.00000000       0.00000000       1.06181818       0.00000000       0.00000000     359.34561157
2
Properties=species:S:1:pos:R:3:forces:R:3 energy=44.80443835605193 pbc="F F F"
Ga       0.00000000       0.00000000       0.00000000       0.00000000       0.00000000    -238.38560486
Ga       0.00000000       0.00000000       1.12060606       0.00000000       0.00000000     238.38560486
2
Properties=species:S:1:pos:R:3:forces:R:3 energy=33.47043633942122 pbc="F F F"
Ga       0.00000000       0.00000000       0.00000000       0.00000000       0.00000000    -153.78048706
Ga       0.00000000       0.00000000       1.17939394       0.00000000       0.00000000     153.78048706
2
Properties=species:S:1:pos:R:3:forces:R:3 energy=25.991979794391803 pbc="F F F"
Ga       0.00000000       0.00000000       0.00000000       0.00000000       0.00000000    -105.83957672
Ga       0.00000000       0.00000000       1.23818182       0.00000000       0.00000000     105.83957672
2
Properties=species:S:1:pos:R:3:forces:R:3 energy=20.581579865949138 pbc="F F F"
Ga       0.00000000       0.00000000       0.00000000       0.00000000       0.00000000     -80.72846222
Ga       0.00000000       0.00000000       1.29696970       0.00000000       0.00000000      80.72846222
2
Properties=species:S:1:pos:R:3:forces:R:3 energy=16.306901774568118 pbc="F F F"
Ga       0.00000000       0.00000000       0.00000000       0.00000000       0.00000000     -65.75220490
Ga       0.00000000       0.00000000       1.35575758       0.00000000       0.00000000      65.75220490
2
Properties=species:S:1:pos:R:3:forces:R:3 energy=12.766311430653037 pbc="F F F"
Ga       0.00000000       0.00000000       0.00000000       0.00000000       0.00000000     -55.16873550
Ga       0.00000000       0.00000000       1.41454545       0.00000000       0.00000000      55.16873550
2
Properties=species:S:1:pos:R:3:forces:R:3 energy=9.785729100743293 pbc="F F F"
Ga       0.00000000       0.00000000       0.00000000       0.00000000       0.00000000     -46.40287399
Ga       0.00000000       0.00000000       1.47333333       0.00000000       0.00000000      46.40287399
2
Properties=species:S:1:pos:R:3:forces:R:3 energy=7.295853344341027 pbc="F F F"
Ga       0.00000000       0.00000000       0.00000000       0.00000000       0.00000000     -38.42408752
Ga       0.00000000       0.00000000       1.53212121       0.00000000       0.00000000      38.42408752
2
Properties=species:S:1:pos:R:3:forces:R:3 energy=5.25095422802895 pbc="F F F"
Ga       0.00000000       0.00000000       0.00000000       0.00000000       0.00000000     -31.31335068
Ga       0.00000000       0.00000000       1.59090909       0.00000000       0.00000000      31.31335068
2
Properties=species:S:1:pos:R:3:forces:R:3 energy=3.5931926211205756 pbc="F F F"
Ga       0.00000000       0.00000000       0.00000000       0.00000000       0.00000000     -25.26316833
Ga       0.00000000       0.00000000       1.64969697       0.00000000       0.00000000      25.26316833
2
Properties=species:S:1:pos:R:3:forces:R:3 energy=2.2607215449365015 pbc="F F F"
Ga       0.00000000       0.00000000       0.00000000       0.00000000       0.00000000     -20.22556686
Ga       0.00000000       0.00000000       1.70848485       0.00000000       0.00000000      20.22556686
2
Properties=species:S:1:pos:R:3:forces:R:3 energy=1.1981776136512776 pbc="F F F"
Ga       0.00000000       0.00000000       0.00000000       0.00000000       0.00000000     -16.05557442
Ga       0.00000000       0.00000000       1.76727273       0.00000000       0.00000000      16.05557442
2
Properties=species:S:1:pos:R:3:forces:R:3 energy=0.3584134807236949 pbc="F F F"
Ga       0.00000000       0.00000000       0.00000000       0.00000000       0.00000000     -12.63005924
Ga       0.00000000       0.00000000       1.82606061       0.00000000       0.00000000      12.63005924
2
Properties=species:S:1:pos:R:3:forces:R:3 energy=-0.29970768959908456 pbc="F F F"
Ga       0.00000000       0.00000000       0.00000000       0.00000000       0.00000000      -9.86266613
Ga       0.00000000       0.00000000       1.88484848       0.00000000       0.00000000       9.86266613
2
Properties=species:S:1:pos:R:3:forces:R:3 energy=-0.8124392217372483 pbc="F F F"
Ga       0.00000000       0.00000000       0.00000000       0.00000000       0.00000000      -7.66833591
Ga       0.00000000       0.00000000       1.94363636       0.00000000       0.00000000       7.66833591
2
Properties=species:S:1:pos:R:3:forces:R:3 energy=-1.2106220060800865 pbc="F F F"
Ga       0.00000000       0.00000000       0.00000000       0.00000000       0.00000000      -5.94862604
Ga       0.00000000       0.00000000       2.00242424       0.00000000       0.00000000       5.94862604
2
Properties=species:S:1:pos:R:3:forces:R:3 energy=-1.5191566414198143 pbc="F F F"
Ga       0.00000000       0.00000000       0.00000000       0.00000000       0.00000000      -4.60210323
Ga       0.00000000       0.00000000       2.06121212       0.00000000       0.00000000       4.60210323
2
Properties=species:S:1:pos:R:3:forces:R:3 energy=-1.7572399404303707 pbc="F F F"
Ga       0.00000000       0.00000000       0.00000000       0.00000000       0.00000000      -3.53800488
Ga       0.00000000       0.00000000       2.12000000       0.00000000       0.00000000       3.53800488
2
Properties=species:S:1:pos:R:3:forces:R:3 energy=-1.9392403575084534 pbc="F F F"
Ga       0.00000000       0.00000000       0.00000000       0.00000000       0.00000000      -2.68374085
Ga       0.00000000       0.00000000       2.17878788       0.00000000       0.00000000       2.68374085
2
Properties=species:S:1:pos:R:3:forces:R:3 energy=-2.0758382610580894 pbc="F F F"
Ga       0.00000000       0.00000000       0.00000000       0.00000000       0.00000000      -1.98593557
Ga       0.00000000       0.00000000       2.23757576       0.00000000       0.00000000       1.98593557
2
Properties=species:S:1:pos:R:3:forces:R:3 energy=-2.1750679937437076 pbc="F F F"
Ga       0.00000000       0.00000000       0.00000000       0.00000000       0.00000000      -1.40740931
Ga       0.00000000       0.00000000       2.29636364       0.00000000       0.00000000       1.40740931
2
Properties=species:S:1:pos:R:3:forces:R:3 energy=-2.2431504186650213 pbc="F F F"
Ga       0.00000000       0.00000000       0.00000000       0.00000000       0.00000000      -0.92280364
Ga       0.00000000       0.00000000       2.35515152       0.00000000       0.00000000       0.92280364
2
Properties=species:S:1:pos:R:3:forces:R:3 energy=-2.2850620455121504 pbc="F F F"
Ga       0.00000000       0.00000000       0.00000000       0.00000000       0.00000000      -0.51463819
Ga       0.00000000       0.00000000       2.41393939       0.00000000       0.00000000       0.51463819
2
Properties=species:S:1:pos:R:3:forces:R:3 energy=-2.3049118571294995 pbc="F F F"
Ga       0.00000000       0.00000000       0.00000000       0.00000000       0.00000000      -0.17048301
Ga       0.00000000       0.00000000       2.47272727       0.00000000       0.00000000       0.17048301
2
Properties=species:S:1:pos:R:3:forces:R:3 energy=-2.306180296126792 pbc="F F F"
Ga       0.00000000       0.00000000       0.00000000       0.00000000       0.00000000       0.11876824
Ga       0.00000000       0.00000000       2.53151515       0.00000000       0.00000000      -0.11876824
2
Properties=species:S:1:pos:R:3:forces:R:3 energy=-2.2918922403899957 pbc="F F F"
Ga       0.00000000       0.00000000       0.00000000       0.00000000       0.00000000       0.35973772
Ga       0.00000000       0.00000000       2.59030303       0.00000000       0.00000000      -0.35973772
2
Properties=species:S:1:pos:R:3:forces:R:3 energy=-2.264735374082294 pbc="F F F"
Ga       0.00000000       0.00000000       0.00000000       0.00000000       0.00000000       0.55723935
Ga       0.00000000       0.00000000       2.64909091       0.00000000       0.00000000      -0.55723935
2
Properties=species:S:1:pos:R:3:forces:R:3 energy=-2.227156369238682 pbc="F F F"
Ga       0.00000000       0.00000000       0.00000000       0.00000000       0.00000000       0.71481675
Ga       0.00000000       0.00000000       2.70787879       0.00000000       0.00000000      -0.71481675
2
Properties=species:S:1:pos:R:3:forces:R:3 energy=-2.1814154510159343 pbc="F F F"
Ga       0.00000000       0.00000000       0.00000000       0.00000000       0.00000000       0.83537531
Ga       0.00000000       0.00000000       2.76666667       0.00000000       0.00000000      -0.83537531
2
Properties=species:S:1:pos:R:3:forces:R:3 energy=-2.129604635451437 pbc="F F F"
Ga       0.00000000       0.00000000       0.00000000       0.00000000       0.00000000       0.92182845
Ga       0.00000000       0.00000000       2.82545455       0.00000000       0.00000000      -0.92182845
2
Properties=species:S:1:pos:R:3:forces:R:3 energy=-2.073628138564746 pbc="F F F"
Ga       0.00000000       0.00000000       0.00000000       0.00000000       0.00000000       0.97789168
Ga       0.00000000       0.00000000       2.88424242       0.00000000       0.00000000      -0.97789168
2
Properties=species:S:1:pos:R:3:forces:R:3 energy=-2.0151198904646086 pbc="F F F"
Ga       0.00000000       0.00000000       0.00000000       0.00000000       0.00000000       1.00895858
Ga       0.00000000       0.00000000       2.94303030       0.00000000       0.00000000      -1.00895858
2
Properties=species:S:1:pos:R:3:forces:R:3 energy=-1.9553596054051348 pbc="F F F"
Ga       0.00000000       0.00000000       0.00000000       0.00000000       0.00000000       1.02153862
Ga       0.00000000       0.00000000       3.00181818       0.00000000       0.00000000      -1.02153862
2
Properties=species:S:1:pos:R:3:forces:R:3 energy=-1.8952780992967233 pbc="F F F"
Ga       0.00000000       0.00000000       0.00000000       0.00000000       0.00000000       1.02042186
Ga       0.00000000       0.00000000       3.06060606       0.00000000       0.00000000      -1.02042186
2
Properties=species:S:1:pos:R:3:forces:R:3 energy=-1.835608700564611 pbc="F F F"
Ga       0.00000000       0.00000000       0.00000000       0.00000000       0.00000000       1.00775707
Ga       0.00000000       0.00000000       3.11939394       0.00000000       0.00000000      -1.00775707
2
Properties=species:S:1:pos:R:3:forces:R:3 energy=-1.7769785825719846 pbc="F F F"
Ga       0.00000000       0.00000000       0.00000000       0.00000000       0.00000000       0.98547447
Ga       0.00000000       0.00000000       3.17818182       0.00000000       0.00000000      -0.98547447
2
Properties=species:S:1:pos:R:3:forces:R:3 energy=-1.719872245716507 pbc="F F F"
Ga       0.00000000       0.00000000       0.00000000       0.00000000       0.00000000       0.95650268
Ga       0.00000000       0.00000000       3.23696970       0.00000000       0.00000000      -0.95650268
2
Properties=species:S:1:pos:R:3:forces:R:3 energy=-1.6645855768707831 pbc="F F F"
Ga       0.00000000       0.00000000       0.00000000       0.00000000       0.00000000       0.92405444
Ga       0.00000000       0.00000000       3.29575758       0.00000000       0.00000000      -0.92405444
2
Properties=species:S:1:pos:R:3:forces:R:3 energy=-1.611240997613856 pbc="F F F"
Ga       0.00000000       0.00000000       0.00000000       0.00000000       0.00000000       0.89080083
Ga       0.00000000       0.00000000       3.35454545       0.00000000       0.00000000      -0.89080083
2
Properties=species:S:1:pos:R:3:forces:R:3 energy=-1.5598290289152557 pbc="F F F"
Ga       0.00000000       0.00000000       0.00000000       0.00000000       0.00000000       0.85852325
Ga       0.00000000       0.00000000       3.41333333       0.00000000       0.00000000      -0.85852325
2
Properties=species:S:1:pos:R:3:forces:R:3 energy=-1.510262491716713 pbc="F F F"
Ga       0.00000000       0.00000000       0.00000000       0.00000000       0.00000000       0.82809889
Ga       0.00000000       0.00000000       3.47212121       0.00000000       0.00000000      -0.82809889
2
Properties=species:S:1:pos:R:3:forces:R:3 energy=-1.462425709555109 pbc="F F F"
Ga       0.00000000       0.00000000       0.00000000       0.00000000       0.00000000       0.79966551
Ga       0.00000000       0.00000000       3.53090909       0.00000000       0.00000000      -0.79966551
2
Properties=species:S:1:pos:R:3:forces:R:3 energy=-1.416209356377292 pbc="F F F"
Ga       0.00000000       0.00000000       0.00000000       0.00000000       0.00000000       0.77285379
Ga       0.00000000       0.00000000       3.58969697       0.00000000       0.00000000      -0.77285379
2
Properties=species:S:1:pos:R:3:forces:R:3 energy=-1.3715369868708884 pbc="F F F"
Ga       0.00000000       0.00000000       0.00000000       0.00000000       0.00000000       0.74703765
Ga       0.00000000       0.00000000       3.64848485       0.00000000       0.00000000      -0.74703765
2
Properties=species:S:1:pos:R:3:forces:R:3 energy=-1.3283703397019453 pbc="F F F"
Ga       0.00000000       0.00000000       0.00000000       0.00000000       0.00000000       0.72154003
Ga       0.00000000       0.00000000       3.70727273       0.00000000       0.00000000      -0.72154003
2
Properties=species:S:1:pos:R:3:forces:R:3 energy=-1.2867069611687685 pbc="F F F"
Ga       0.00000000       0.00000000       0.00000000       0.00000000       0.00000000       0.69575626
Ga       0.00000000       0.00000000       3.76606061       0.00000000       0.00000000      -0.69575626
2
Properties=species:S:1:pos:R:3:forces:R:3 energy=-1.2465806677039568 pbc="F F F"
Ga       0.00000000       0.00000000       0.00000000       0.00000000       0.00000000       0.66923934
Ga       0.00000000       0.00000000       3.82484848       0.00000000       0.00000000      -0.66923934
2
Properties=species:S:1:pos:R:3:forces:R:3 energy=-1.2080410620514839 pbc="F F F"
Ga       0.00000000       0.00000000       0.00000000       0.00000000       0.00000000       0.64169896
Ga       0.00000000       0.00000000       3.88363636       0.00000000       0.00000000      -0.64169896
2
Properties=species:S:1:pos:R:3:forces:R:3 energy=-1.1711545082838521 pbc="F F F"
Ga       0.00000000       0.00000000       0.00000000       0.00000000       0.00000000       0.61301053
Ga       0.00000000       0.00000000       3.94242424       0.00000000       0.00000000      -0.61301053
2
Properties=species:S:1:pos:R:3:forces:R:3 energy=-1.13598827379876 pbc="F F F"
Ga       0.00000000       0.00000000       0.00000000       0.00000000       0.00000000       0.58319491
Ga       0.00000000       0.00000000       4.00121212       0.00000000       0.00000000      -0.58319491
2
Properties=species:S:1:pos:R:3:forces:R:3 energy=-1.1026043284361755 pbc="F F F"
Ga       0.00000000       0.00000000       0.00000000       0.00000000       0.00000000       0.55240005
Ga       0.00000000       0.00000000       4.06000000       0.00000000       0.00000000      -0.55240005
2
Properties=species:S:1:pos:R:3:forces:R:3 energy=-1.0710537321382603 pbc="F F F"
Ga       0.00000000       0.00000000       0.00000000       0.00000000       0.00000000       0.52089459
Ga       0.00000000       0.00000000       4.11878788       0.00000000       0.00000000      -0.52089459
2
Properties=species:S:1:pos:R:3:forces:R:3 energy=-1.0413663239298006 pbc="F F F"
Ga       0.00000000       0.00000000       0.00000000       0.00000000       0.00000000       0.48904809
Ga       0.00000000       0.00000000       4.17757576       0.00000000       0.00000000      -0.48904809
2
Properties=species:S:1:pos:R:3:forces:R:3 energy=-1.0135505488559395 pbc="F F F"
Ga       0.00000000       0.00000000       0.00000000       0.00000000       0.00000000       0.45732176
Ga       0.00000000       0.00000000       4.23636364       0.00000000       0.00000000      -0.45732176
2
Properties=species:S:1:pos:R:3:forces:R:3 energy=-0.9875838331239711 pbc="F F F"
Ga       0.00000000       0.00000000       0.00000000       0.00000000       0.00000000       0.42622876
Ga       0.00000000       0.00000000       4.29515152       0.00000000       0.00000000      -0.42622876
2
Properties=species:S:1:pos:R:3:forces:R:3 energy=-0.9634140488768805 pbc="F F F"
Ga       0.00000000       0.00000000       0.00000000       0.00000000       0.00000000       0.39629698
Ga       0.00000000       0.00000000       4.35393939       0.00000000       0.00000000      -0.39629698
2
Properties=species:S:1:pos:R:3:forces:R:3 energy=-0.9409568999244893 pbc="F F F"
Ga       0.00000000       0.00000000       0.00000000       0.00000000       0.00000000       0.36800897
Ga       0.00000000       0.00000000       4.41272727       0.00000000       0.00000000      -0.36800897
2
Properties=species:S:1:pos:R:3:forces:R:3 energy=-0.920104984817283 pbc="F F F"
Ga       0.00000000       0.00000000       0.00000000       0.00000000       0.00000000       0.34173787
Ga       0.00000000       0.00000000       4.47151515       0.00000000       0.00000000      -0.34173787
2
Properties=species:S:1:pos:R:3:forces:R:3 energy=-0.9007328113881111 pbc="F F F"
Ga       0.00000000       0.00000000       0.00000000       0.00000000       0.00000000       0.31768450
Ga       0.00000000       0.00000000       4.53030303       0.00000000       0.00000000      -0.31768450
2
Properties=species:S:1:pos:R:3:forces:R:3 energy=-0.882710053741928 pbc="F F F"
Ga       0.00000000       0.00000000       0.00000000       0.00000000       0.00000000       0.29582319
Ga       0.00000000       0.00000000       4.58909091       0.00000000       0.00000000      -0.29582319
2
Properties=species:S:1:pos:R:3:forces:R:3 energy=-0.865913754784885 pbc="F F F"
Ga       0.00000000       0.00000000       0.00000000       0.00000000       0.00000000       0.27588889
Ga       0.00000000       0.00000000       4.64787879       0.00000000       0.00000000      -0.27588889
2
Properties=species:S:1:pos:R:3:forces:R:3 energy=-0.8502435775097968 pbc="F F F"
Ga       0.00000000       0.00000000       0.00000000       0.00000000       0.00000000       0.25739884
Ga       0.00000000       0.00000000       4.70666667       0.00000000       0.00000000      -0.25739884
2
Properties=species:S:1:pos:R:3:forces:R:3 energy=-0.835633010085383 pbc="F F F"
Ga       0.00000000       0.00000000       0.00000000       0.00000000       0.00000000       0.23977220
Ga       0.00000000       0.00000000       4.76545455       0.00000000       0.00000000      -0.23977220
2
Properties=species:S:1:pos:R:3:forces:R:3 energy=-0.8220450705700462 pbc="F F F"
Ga       0.00000000       0.00000000       0.00000000       0.00000000       0.00000000       0.22249418
Ga       0.00000000       0.00000000       4.82424242       0.00000000       0.00000000      -0.22249418
2
Properties=species:S:1:pos:R:3:forces:R:3 energy=-0.8094714407686237 pbc="F F F"
Ga       0.00000000       0.00000000       0.00000000       0.00000000       0.00000000       0.20534232
Ga       0.00000000       0.00000000       4.88303030       0.00000000       0.00000000      -0.20534232
2
Properties=species:S:1:pos:R:3:forces:R:3 energy=-0.7978952216649171 pbc="F F F"
Ga       0.00000000       0.00000000       0.00000000       0.00000000       0.00000000       0.18857265
Ga       0.00000000       0.00000000       4.94181818       0.00000000       0.00000000      -0.18857265
2
Properties=species:S:1:pos:R:3:forces:R:3 energy=-0.7872756730487188 pbc="F F F"
Ga       0.00000000       0.00000000       0.00000000       0.00000000       0.00000000       0.17302340
Ga       0.00000000       0.00000000       5.00060606       0.00000000       0.00000000      -0.17302340
2
Properties=species:S:1:pos:R:3:forces:R:3 energy=-0.7775026333855808 pbc="F F F"
Ga       0.00000000       0.00000000       0.00000000       0.00000000       0.00000000       0.15996873
Ga       0.00000000       0.00000000       5.05939394       0.00000000       0.00000000      -0.15996873
2
Properties=species:S:1:pos:R:3:forces:R:3 energy=-0.7683921744294141 pbc="F F F"
Ga       0.00000000       0.00000000       0.00000000       0.00000000       0.00000000       0.15071443
Ga       0.00000000       0.00000000       5.11818182       0.00000000       0.00000000      -0.15071443
2
Properties=species:S:1:pos:R:3:forces:R:3 energy=-0.7596953646891819 pbc="F F F"
Ga       0.00000000       0.00000000       0.00000000       0.00000000       0.00000000       0.14587124
Ga       0.00000000       0.00000000       5.17696970       0.00000000       0.00000000      -0.14587124
2
Properties=species:S:1:pos:R:3:forces:R:3 energy=-0.7511725954209992 pbc="F F F"
Ga       0.00000000       0.00000000       0.00000000       0.00000000       0.00000000       0.14446183
Ga       0.00000000       0.00000000       5.23575758       0.00000000       0.00000000      -0.14446183
2
Properties=species:S:1:pos:R:3:forces:R:3 energy=-0.7427062597492714 pbc="F F F"
Ga       0.00000000       0.00000000       0.00000000       0.00000000       0.00000000       0.14319623
Ga       0.00000000       0.00000000       5.29454545       0.00000000       0.00000000      -0.14319623
2
Properties=species:S:1:pos:R:3:forces:R:3 energy=-0.7344252251719818 pbc="F F F"
Ga       0.00000000       0.00000000       0.00000000       0.00000000       0.00000000       0.13748980
Ga       0.00000000       0.00000000       5.35333333       0.00000000       0.00000000      -0.13748980
2
Properties=species:S:1:pos:R:3:forces:R:3 energy=-0.7266386739889031 pbc="F F F"
Ga       0.00000000       0.00000000       0.00000000       0.00000000       0.00000000       0.12727885
Ga       0.00000000       0.00000000       5.41212121       0.00000000       0.00000000      -0.12727885
2
Properties=species:S:1:pos:R:3:forces:R:3 energy=-0.7193334230701385 pbc="F F F"
Ga       0.00000000       0.00000000       0.00000000       0.00000000       0.00000000       0.12341804
Ga       0.00000000       0.00000000       5.47090909       0.00000000       0.00000000      -0.12341804
2
Properties=species:S:1:pos:R:3:forces:R:3 energy=-0.7119010622958712 pbc="F F F"
Ga       0.00000000       0.00000000       0.00000000       0.00000000       0.00000000       0.12977026
Ga       0.00000000       0.00000000       5.52969697       0.00000000       0.00000000      -0.12977026
2
Properties=species:S:1:pos:R:3:forces:R:3 energy=-0.7042890600471113 pbc="F F F"
Ga       0.00000000       0.00000000       0.00000000       0.00000000       0.00000000       0.12611738
Ga       0.00000000       0.00000000       5.58848485       0.00000000       0.00000000      -0.12611738
2
Properties=species:S:1:pos:R:3:forces:R:3 energy=-0.6973631259758175 pbc="F F F"
Ga       0.00000000       0.00000000       0.00000000       0.00000000       0.00000000       0.10875715
Ga       0.00000000       0.00000000       5.64727273       0.00000000       0.00000000      -0.10875715
2
Properties=species:S:1:pos:R:3:forces:R:3 energy=-0.691348886373066 pbc="F F F"
Ga       0.00000000       0.00000000       0.00000000       0.00000000       0.00000000       0.09929715
Ga       0.00000000       0.00000000       5.70606061       0.00000000       0.00000000      -0.09929715
2
Properties=species:S:1:pos:R:3:forces:R:3 energy=-0.6851735920491944 pbc="F F F"
Ga       0.00000000       0.00000000       0.00000000       0.00000000       0.00000000       0.11319233
Ga       0.00000000       0.00000000       5.76484848       0.00000000       0.00000000      -0.11319233
2
Properties=species:S:1:pos:R:3:forces:R:3 energy=-0.6782471320461786 pbc="F F F"
Ga       0.00000000       0.00000000       0.00000000       0.00000000       0.00000000       0.11628074
Ga       0.00000000       0.00000000       5.82363636       0.00000000       0.00000000      -0.11628074
2
Properties=species:S:1:pos:R:3:forces:R:3 energy=-0.6724055622898237 pbc="F F F"
Ga       0.00000000       0.00000000       0.00000000       0.00000000       0.00000000       0.07755800
Ga       0.00000000       0.00000000       5.88242424       0.00000000       0.00000000      -0.07755800
2
Properties=species:S:1:pos:R:3:forces:R:3 energy=-0.6693312947707499 pbc="F F F"
Ga       0.00000000       0.00000000       0.00000000       0.00000000       0.00000000       0.02877635
Ga       0.00000000       0.00000000       5.94121212       0.00000000       0.00000000      -0.02877635
2
Properties=species:S:1:pos:R:3:forces:R:3 energy=-0.668439160796699 pbc="F F F"
Ga       0.00000000       0.00000000       0.00000000       0.00000000       0.00000000       0.00820687
Ga       0.00000000       0.00000000       6.00000000       0.00000000       0.00000000      -0.00820687
