2
Properties=species:S:1:pos:R:3:forces:R:3 energy=19542.847873601262 pbc="F F F"
Hg       0.00000000       0.00000000       0.00000000       0.00000000       0.00000000 -291497.87500000
Hg       0.00000000       0.00000000       0.18000000       0.00000000       0.00000000  291497.87500000
2
Properties=species:S:1:pos:R:3:forces:R:3 energy=9369.150607976262 pbc="F F F"
Hg       0.00000000       0.00000000       0.00000000       0.00000000       0.00000000  -96399.74218750
Hg       0.00000000       0.00000000       0.23878788       0.00000000       0.00000000   96399.74218750
2
Properties=species:S:1:pos:R:3:forces:R:3 energy=5698.982150945012 pbc="F F F"
Hg       0.00000000       0.00000000       0.00000000       0.00000000       0.00000000  -38983.08984375
Hg       0.00000000       0.00000000       0.29757576       0.00000000       0.00000000   38983.08984375
2
Properties=species:S:1:pos:R:3:forces:R:3 energy=4075.059055248223 pbc="F F F"
Hg       0.00000000       0.00000000       0.00000000       0.00000000       0.00000000  -19633.37109375
Hg       0.00000000       0.00000000       0.35636364       0.00000000       0.00000000   19633.37109375
2
Properties=species:S:1:pos:R:3:forces:R:3 energy=3148.147190017016 pbc="F F F"
Hg       0.00000000       0.00000000       0.00000000       0.00000000       0.00000000  -13103.28125000
Hg       0.00000000       0.00000000       0.41515152       0.00000000       0.00000000   13103.28125000
2
Properties=species:S:1:pos:R:3:forces:R:3 energy=2450.6667212796874 pbc="F F F"
Hg       0.00000000       0.00000000       0.00000000       0.00000000       0.00000000  -10985.39941406
Hg       0.00000000       0.00000000       0.47393939       0.00000000       0.00000000   10985.39941406
2
Properties=species:S:1:pos:R:3:forces:R:3 energy=1840.002902942487 pbc="F F F"
Hg       0.00000000       0.00000000       0.00000000       0.00000000       0.00000000   -9774.54785156
Hg       0.00000000       0.00000000       0.53272727       0.00000000       0.00000000    9774.54785156
2
Properties=species:S:1:pos:R:3:forces:R:3 energy=1419.0253639243365 pbc="F F F"
Hg       0.00000000       0.00000000       0.00000000       0.00000000       0.00000000   -4456.86132812
Hg       0.00000000       0.00000000       0.59151515       0.00000000       0.00000000    4456.86132812
2
Properties=species:S:1:pos:R:3:forces:R:3 energy=1227.101413798716 pbc="F F F"
Hg       0.00000000       0.00000000       0.00000000       0.00000000       0.00000000   -2507.70947266
Hg       0.00000000       0.00000000       0.65030303       0.00000000       0.00000000    2507.70947266
2
Properties=species:S:1:pos:R:3:forces:R:3 energy=1072.5309793361096 pbc="F F F"
Hg       0.00000000       0.00000000       0.00000000       0.00000000       0.00000000   -2722.29711914
Hg       0.00000000       0.00000000       0.70909091       0.00000000       0.00000000    2722.29711914
2
Properties=species:S:1:pos:R:3:forces:R:3 energy=911.6716045008363 pbc="F F F"
Hg       0.00000000       0.00000000       0.00000000       0.00000000       0.00000000   -2757.94189453
Hg       0.00000000       0.00000000       0.76787879       0.00000000       0.00000000    2757.94189453
2
Properties=species:S:1:pos:R:3:forces:R:3 energy=718.6319929283524 pbc="F F F"
Hg       0.00000000       0.00000000       0.00000000       0.00000000       0.00000000   -3511.87084961
Hg       0.00000000       0.00000000       0.82666667       0.00000000       0.00000000    3511.87084961
2
Properties=species:S:1:pos:R:3:forces:R:3 energy=532.3288316588869 pbc="F F F"
Hg       0.00000000       0.00000000       0.00000000       0.00000000       0.00000000   -2734.35400391
Hg       0.00000000       0.00000000       0.88545455       0.00000000       0.00000000    2734.35400391
2
Properties=species:S:1:pos:R:3:forces:R:3 energy=398.318700310794 pbc="F F F"
Hg       0.00000000       0.00000000       0.00000000       0.00000000       0.00000000   -1836.75671387
Hg       0.00000000       0.00000000       0.94424242       0.00000000       0.00000000    1836.75671387
2
Properties=species:S:1:pos:R:3:forces:R:3 energy=311.09036846917667 pbc="F F F"
Hg       0.00000000       0.00000000       0.00000000       0.00000000       0.00000000   -1237.01184082
Hg       0.00000000       0.00000000       1.00303030       0.00000000       0.00000000    1237.01184082
2
Properties=species:S:1:pos:R:3:forces:R:3 energy=246.92253795744318 pbc="F F F"
Hg       0.00000000       0.00000000       0.00000000       0.00000000       0.00000000    -952.84539795
Hg       0.00000000       0.00000000       1.06181818       0.00000000       0.00000000     952.84539795
2
Properties=species:S:1:pos:R:3:forces:R:3 energy=198.2177051800084 pbc="F F F"
Hg       0.00000000       0.00000000       0.00000000       0.00000000       0.00000000    -715.58679199
Hg       0.00000000       0.00000000       1.12060606       0.00000000       0.00000000     715.58679199
2
Properties=species:S:1:pos:R:3:forces:R:3 energy=160.80933578907198 pbc="F F F"
Hg       0.00000000       0.00000000       0.00000000       0.00000000       0.00000000    -576.29388428
Hg       0.00000000       0.00000000       1.17939394       0.00000000       0.00000000     576.29388428
2
Properties=species:S:1:pos:R:3:forces:R:3 energy=129.74752448416072 pbc="F F F"
Hg       0.00000000       0.00000000       0.00000000       0.00000000       0.00000000    -477.97937012
Hg       0.00000000       0.00000000       1.23818182       0.00000000       0.00000000     477.97937012
2
Properties=species:S:1:pos:R:3:forces:R:3 energy=104.1690816662115 pbc="F F F"
Hg       0.00000000       0.00000000       0.00000000       0.00000000       0.00000000    -399.77416992
Hg       0.00000000       0.00000000       1.29696970       0.00000000       0.00000000     399.77416992
2
Properties=species:S:1:pos:R:3:forces:R:3 energy=82.43490833767564 pbc="F F F"
Hg       0.00000000       0.00000000       0.00000000       0.00000000       0.00000000    -338.14804077
Hg       0.00000000       0.00000000       1.35575758       0.00000000       0.00000000     338.14804077
2
Properties=species:S:1:pos:R:3:forces:R:3 energy=64.57623939181951 pbc="F F F"
Hg       0.00000000       0.00000000       0.00000000       0.00000000       0.00000000    -268.69815063
Hg       0.00000000       0.00000000       1.41454545       0.00000000       0.00000000     268.69815063
2
Properties=species:S:1:pos:R:3:forces:R:3 energy=50.7551919914288 pbc="F F F"
Hg       0.00000000       0.00000000       0.00000000       0.00000000       0.00000000    -203.88619995
Hg       0.00000000       0.00000000       1.47333333       0.00000000       0.00000000     203.88619995
2
Properties=species:S:1:pos:R:3:forces:R:3 energy=40.2496784696332 pbc="F F F"
Hg       0.00000000       0.00000000       0.00000000       0.00000000       0.00000000    -156.41317749
Hg       0.00000000       0.00000000       1.53212121       0.00000000       0.00000000     156.41317749
2
Properties=species:S:1:pos:R:3:forces:R:3 energy=32.08985423006504 pbc="F F F"
Hg       0.00000000       0.00000000       0.00000000       0.00000000       0.00000000    -122.99832916
Hg       0.00000000       0.00000000       1.59090909       0.00000000       0.00000000     122.99832916
2
Properties=species:S:1:pos:R:3:forces:R:3 energy=25.620213395284715 pbc="F F F"
Hg       0.00000000       0.00000000       0.00000000       0.00000000       0.00000000     -98.23547363
Hg       0.00000000       0.00000000       1.64969697       0.00000000       0.00000000      98.23547363
2
Properties=species:S:1:pos:R:3:forces:R:3 energy=20.43107682805094 pbc="F F F"
Hg       0.00000000       0.00000000       0.00000000       0.00000000       0.00000000     -79.05488586
Hg       0.00000000       0.00000000       1.70848485       0.00000000       0.00000000      79.05488586
2
Properties=species:S:1:pos:R:3:forces:R:3 energy=16.251504064506292 pbc="F F F"
Hg       0.00000000       0.00000000       0.00000000       0.00000000       0.00000000     -63.67046738
Hg       0.00000000       0.00000000       1.76727273       0.00000000       0.00000000      63.67046738
2
Properties=species:S:1:pos:R:3:forces:R:3 energy=12.889263346495778 pbc="F F F"
Hg       0.00000000       0.00000000       0.00000000       0.00000000       0.00000000     -51.14210510
Hg       0.00000000       0.00000000       1.82606061       0.00000000       0.00000000      51.14210510
2
Properties=species:S:1:pos:R:3:forces:R:3 energy=10.192663620558292 pbc="F F F"
Hg       0.00000000       0.00000000       0.00000000       0.00000000       0.00000000     -40.95096588
Hg       0.00000000       0.00000000       1.88484848       0.00000000       0.00000000      40.95096588
2
Properties=species:S:1:pos:R:3:forces:R:3 energy=8.036771140052416 pbc="F F F"
Hg       0.00000000       0.00000000       0.00000000       0.00000000       0.00000000     -32.68297958
Hg       0.00000000       0.00000000       1.94363636       0.00000000       0.00000000      32.68297958
2
Properties=species:S:1:pos:R:3:forces:R:3 energy=6.3191317114928305 pbc="F F F"
Hg       0.00000000       0.00000000       0.00000000       0.00000000       0.00000000     -25.98950577
Hg       0.00000000       0.00000000       2.00242424       0.00000000       0.00000000      25.98950577
2
Properties=species:S:1:pos:R:3:forces:R:3 energy=4.955650370008859 pbc="F F F"
Hg       0.00000000       0.00000000       0.00000000       0.00000000       0.00000000     -20.59333038
Hg       0.00000000       0.00000000       2.06121212       0.00000000       0.00000000      20.59333038
2
Properties=species:S:1:pos:R:3:forces:R:3 energy=3.8768386170564435 pbc="F F F"
Hg       0.00000000       0.00000000       0.00000000       0.00000000       0.00000000     -16.27081871
Hg       0.00000000       0.00000000       2.12000000       0.00000000       0.00000000      16.27081871
2
Properties=species:S:1:pos:R:3:forces:R:3 energy=3.025274073625626 pbc="F F F"
Hg       0.00000000       0.00000000       0.00000000       0.00000000       0.00000000     -12.83301067
Hg       0.00000000       0.00000000       2.17878788       0.00000000       0.00000000      12.83301067
2
Properties=species:S:1:pos:R:3:forces:R:3 energy=2.3539037922613644 pbc="F F F"
Hg       0.00000000       0.00000000       0.00000000       0.00000000       0.00000000     -10.11482430
Hg       0.00000000       0.00000000       2.23757576       0.00000000       0.00000000      10.11482430
2
Properties=species:S:1:pos:R:3:forces:R:3 energy=1.8247477273269044 pbc="F F F"
Hg       0.00000000       0.00000000       0.00000000       0.00000000       0.00000000      -7.97272205
Hg       0.00000000       0.00000000       2.29636364       0.00000000       0.00000000       7.97272205
2
Properties=species:S:1:pos:R:3:forces:R:3 energy=1.4075838922180004 pbc="F F F"
Hg       0.00000000       0.00000000       0.00000000       0.00000000       0.00000000      -6.28659916
Hg       0.00000000       0.00000000       2.35515152       0.00000000       0.00000000       6.28659916
2
Properties=species:S:1:pos:R:3:forces:R:3 energy=1.0785632527883815 pbc="F F F"
Hg       0.00000000       0.00000000       0.00000000       0.00000000       0.00000000      -4.95988703
Hg       0.00000000       0.00000000       2.41393939       0.00000000       0.00000000       4.95988703
2
Properties=species:S:1:pos:R:3:forces:R:3 energy=0.8188812814496966 pbc="F F F"
Hg       0.00000000       0.00000000       0.00000000       0.00000000       0.00000000      -3.91647816
Hg       0.00000000       0.00000000       2.47272727       0.00000000       0.00000000       3.91647816
2
Properties=species:S:1:pos:R:3:forces:R:3 energy=0.6137129948956085 pbc="F F F"
Hg       0.00000000       0.00000000       0.00000000       0.00000000       0.00000000      -3.09642720
Hg       0.00000000       0.00000000       2.53151515       0.00000000       0.00000000       3.09642720
2
Properties=species:S:1:pos:R:3:forces:R:3 energy=0.4513802852137632 pbc="F F F"
Hg       0.00000000       0.00000000       0.00000000       0.00000000       0.00000000      -2.45210099
Hg       0.00000000       0.00000000       2.59030303       0.00000000       0.00000000       2.45210099
2
Properties=species:S:1:pos:R:3:forces:R:3 energy=0.32271076013744476 pbc="F F F"
Hg       0.00000000       0.00000000       0.00000000       0.00000000       0.00000000      -1.94552803
Hg       0.00000000       0.00000000       2.64909091       0.00000000       0.00000000       1.94552803
2
Properties=species:S:1:pos:R:3:forces:R:3 energy=0.22052673708268913 pbc="F F F"
Hg       0.00000000       0.00000000       0.00000000       0.00000000       0.00000000      -1.54661095
Hg       0.00000000       0.00000000       2.70787879       0.00000000       0.00000000       1.54661095
2
Properties=species:S:1:pos:R:3:forces:R:3 energy=0.13922225036302935 pbc="F F F"
Hg       0.00000000       0.00000000       0.00000000       0.00000000       0.00000000      -1.23178566
Hg       0.00000000       0.00000000       2.76666667       0.00000000       0.00000000       1.23178566
2
Properties=species:S:1:pos:R:3:forces:R:3 energy=0.0744109914353791 pbc="F F F"
Hg       0.00000000       0.00000000       0.00000000       0.00000000       0.00000000      -0.98283064
Hg       0.00000000       0.00000000       2.82545455       0.00000000       0.00000000       0.98283064
2
Properties=species:S:1:pos:R:3:forces:R:3 energy=0.022651065038057902 pbc="F F F"
Hg       0.00000000       0.00000000       0.00000000       0.00000000       0.00000000      -0.78572094
Hg       0.00000000       0.00000000       2.88424242       0.00000000       0.00000000       0.78572094
2
Properties=species:S:1:pos:R:3:forces:R:3 energy=-0.01877111175194781 pbc="F F F"
Hg       0.00000000       0.00000000       0.00000000       0.00000000       0.00000000      -0.62952471
Hg       0.00000000       0.00000000       2.94303030       0.00000000       0.00000000       0.62952471
2
Properties=species:S:1:pos:R:3:forces:R:3 energy=-0.05199409060304393 pbc="F F F"
Hg       0.00000000       0.00000000       0.00000000       0.00000000       0.00000000      -0.50542688
Hg       0.00000000       0.00000000       3.00181818       0.00000000       0.00000000       0.50542688
2
Properties=species:S:1:pos:R:3:forces:R:3 energy=-0.07868085980935334 pbc="F F F"
Hg       0.00000000       0.00000000       0.00000000       0.00000000       0.00000000      -0.40604261
Hg       0.00000000       0.00000000       3.06060606       0.00000000       0.00000000       0.40604261
2
Properties=species:S:1:pos:R:3:forces:R:3 energy=-0.10009808230244725 pbc="F F F"
Hg       0.00000000       0.00000000       0.00000000       0.00000000       0.00000000      -0.32526845
Hg       0.00000000       0.00000000       3.11939394       0.00000000       0.00000000       0.32526845
2
Properties=species:S:1:pos:R:3:forces:R:3 energy=-0.11720255424898389 pbc="F F F"
Hg       0.00000000       0.00000000       0.00000000       0.00000000       0.00000000      -0.25874439
Hg       0.00000000       0.00000000       3.17818182       0.00000000       0.00000000       0.25874439
2
Properties=species:S:1:pos:R:3:forces:R:3 energy=-0.13075023334708408 pbc="F F F"
Hg       0.00000000       0.00000000       0.00000000       0.00000000       0.00000000      -0.20401371
Hg       0.00000000       0.00000000       3.23696970       0.00000000       0.00000000       0.20401371
2
Properties=species:S:1:pos:R:3:forces:R:3 energy=-0.14139195397005 pbc="F F F"
Hg       0.00000000       0.00000000       0.00000000       0.00000000       0.00000000      -0.15961696
Hg       0.00000000       0.00000000       3.29575758       0.00000000       0.00000000       0.15961696
2
Properties=species:S:1:pos:R:3:forces:R:3 energy=-0.14969157127026939 pbc="F F F"
Hg       0.00000000       0.00000000       0.00000000       0.00000000       0.00000000      -0.12408935
Hg       0.00000000       0.00000000       3.35454545       0.00000000       0.00000000       0.12408935
2
Properties=species:S:1:pos:R:3:forces:R:3 energy=-0.15612533841791792 pbc="F F F"
Hg       0.00000000       0.00000000       0.00000000       0.00000000       0.00000000      -0.09589391
Hg       0.00000000       0.00000000       3.41333333       0.00000000       0.00000000       0.09589391
2
Properties=species:S:1:pos:R:3:forces:R:3 energy=-0.1610848190298509 pbc="F F F"
Hg       0.00000000       0.00000000       0.00000000       0.00000000       0.00000000      -0.07375366
Hg       0.00000000       0.00000000       3.47212121       0.00000000       0.00000000       0.07375366
2
Properties=species:S:1:pos:R:3:forces:R:3 energy=-0.1648974786446557 pbc="F F F"
Hg       0.00000000       0.00000000       0.00000000       0.00000000       0.00000000      -0.05674594
Hg       0.00000000       0.00000000       3.53090909       0.00000000       0.00000000       0.05674594
2
Properties=species:S:1:pos:R:3:forces:R:3 energy=-0.16784358288257217 pbc="F F F"
Hg       0.00000000       0.00000000       0.00000000       0.00000000       0.00000000      -0.04417067
Hg       0.00000000       0.00000000       3.58969697       0.00000000       0.00000000       0.04417067
2
Properties=species:S:1:pos:R:3:forces:R:3 energy=-0.17016556499894947 pbc="F F F"
Hg       0.00000000       0.00000000       0.00000000       0.00000000       0.00000000      -0.03541333
Hg       0.00000000       0.00000000       3.64848485       0.00000000       0.00000000       0.03541333
2
Properties=species:S:1:pos:R:3:forces:R:3 energy=-0.17206994121281485 pbc="F F F"
Hg       0.00000000       0.00000000       0.00000000       0.00000000       0.00000000      -0.02985914
Hg       0.00000000       0.00000000       3.70727273       0.00000000       0.00000000       0.02985914
2
Properties=species:S:1:pos:R:3:forces:R:3 energy=-0.17372683218793972 pbc="F F F"
Hg       0.00000000       0.00000000       0.00000000       0.00000000       0.00000000      -0.02687982
Hg       0.00000000       0.00000000       3.76606061       0.00000000       0.00000000       0.02687982
2
Properties=species:S:1:pos:R:3:forces:R:3 energy=-0.17526858260460418 pbc="F F F"
Hg       0.00000000       0.00000000       0.00000000       0.00000000       0.00000000      -0.02585478
Hg       0.00000000       0.00000000       3.82484848       0.00000000       0.00000000       0.02585478
2
Properties=species:S:1:pos:R:3:forces:R:3 energy=-0.17679359861559346 pbc="F F F"
Hg       0.00000000       0.00000000       0.00000000       0.00000000       0.00000000      -0.02620515
Hg       0.00000000       0.00000000       3.88363636       0.00000000       0.00000000       0.02620515
2
Properties=species:S:1:pos:R:3:forces:R:3 energy=-0.1783668049684765 pbc="F F F"
Hg       0.00000000       0.00000000       0.00000000       0.00000000       0.00000000      -0.02742903
Hg       0.00000000       0.00000000       3.94242424       0.00000000       0.00000000       0.02742903
2
Properties=species:S:1:pos:R:3:forces:R:3 energy=-0.18002772683266755 pbc="F F F"
Hg       0.00000000       0.00000000       0.00000000       0.00000000       0.00000000      -0.02912504
Hg       0.00000000       0.00000000       4.00121212       0.00000000       0.00000000       0.02912504
2
Properties=species:S:1:pos:R:3:forces:R:3 energy=-0.1817946716280269 pbc="F F F"
Hg       0.00000000       0.00000000       0.00000000       0.00000000       0.00000000      -0.03099446
Hg       0.00000000       0.00000000       4.06000000       0.00000000       0.00000000       0.03099446
2
Properties=species:S:1:pos:R:3:forces:R:3 energy=-0.1836711847494536 pbc="F F F"
Hg       0.00000000       0.00000000       0.00000000       0.00000000       0.00000000      -0.03283897
Hg       0.00000000       0.00000000       4.11878788       0.00000000       0.00000000       0.03283897
2
Properties=species:S:1:pos:R:3:forces:R:3 energy=-0.1856528137561179 pbc="F F F"
Hg       0.00000000       0.00000000       0.00000000       0.00000000       0.00000000      -0.03454114
Hg       0.00000000       0.00000000       4.17757576       0.00000000       0.00000000       0.03454114
2
Properties=species:S:1:pos:R:3:forces:R:3 energy=-0.18772877484163963 pbc="F F F"
Hg       0.00000000       0.00000000       0.00000000       0.00000000       0.00000000      -0.03604564
Hg       0.00000000       0.00000000       4.23636364       0.00000000       0.00000000       0.03604564
2
Properties=species:S:1:pos:R:3:forces:R:3 energy=-0.18988686200573915 pbc="F F F"
Hg       0.00000000       0.00000000       0.00000000       0.00000000       0.00000000      -0.03733743
Hg       0.00000000       0.00000000       4.29515152       0.00000000       0.00000000       0.03733743
2
Properties=species:S:1:pos:R:3:forces:R:3 energy=-0.1921147067333181 pbc="F F F"
Hg       0.00000000       0.00000000       0.00000000       0.00000000       0.00000000      -0.03842976
Hg       0.00000000       0.00000000       4.35393939       0.00000000       0.00000000       0.03842976
2
Properties=species:S:1:pos:R:3:forces:R:3 energy=-0.1944017593269079 pbc="F F F"
Hg       0.00000000       0.00000000       0.00000000       0.00000000       0.00000000      -0.03935148
Hg       0.00000000       0.00000000       4.41272727       0.00000000       0.00000000       0.03935148
2
Properties=species:S:1:pos:R:3:forces:R:3 energy=-0.19673896777074124 pbc="F F F"
Hg       0.00000000       0.00000000       0.00000000       0.00000000       0.00000000      -0.04014036
Hg       0.00000000       0.00000000       4.47151515       0.00000000       0.00000000       0.04014036
2
Properties=species:S:1:pos:R:3:forces:R:3 energy=-0.19911959325083145 pbc="F F F"
Hg       0.00000000       0.00000000       0.00000000       0.00000000       0.00000000      -0.04083519
Hg       0.00000000       0.00000000       4.53030303       0.00000000       0.00000000       0.04083519
2
Properties=species:S:1:pos:R:3:forces:R:3 energy=-0.2015387375475571 pbc="F F F"
Hg       0.00000000       0.00000000       0.00000000       0.00000000       0.00000000      -0.04145996
Hg       0.00000000       0.00000000       4.58909091       0.00000000       0.00000000       0.04145996
2
Properties=species:S:1:pos:R:3:forces:R:3 energy=-0.20399280278007528 pbc="F F F"
Hg       0.00000000       0.00000000       0.00000000       0.00000000       0.00000000      -0.04201515
Hg       0.00000000       0.00000000       4.64787879       0.00000000       0.00000000       0.04201515
2
Properties=species:S:1:pos:R:3:forces:R:3 energy=-0.20647683278795573 pbc="F F F"
Hg       0.00000000       0.00000000       0.00000000       0.00000000       0.00000000      -0.04246510
Hg       0.00000000       0.00000000       4.70666667       0.00000000       0.00000000       0.04246510
2
Properties=species:S:1:pos:R:3:forces:R:3 energy=-0.20898239558238035 pbc="F F F"
Hg       0.00000000       0.00000000       0.00000000       0.00000000       0.00000000      -0.04274607
Hg       0.00000000       0.00000000       4.76545455       0.00000000       0.00000000       0.04274607
2
Properties=species:S:1:pos:R:3:forces:R:3 energy=-0.21149815850975892 pbc="F F F"
Hg       0.00000000       0.00000000       0.00000000       0.00000000       0.00000000      -0.04278921
Hg       0.00000000       0.00000000       4.82424242       0.00000000       0.00000000       0.04278921
2
Properties=species:S:1:pos:R:3:forces:R:3 energy=-0.21400801991689708 pbc="F F F"
Hg       0.00000000       0.00000000       0.00000000       0.00000000       0.00000000      -0.04257132
Hg       0.00000000       0.00000000       4.88303030       0.00000000       0.00000000       0.04257132
2
Properties=species:S:1:pos:R:3:forces:R:3 energy=-0.21649970113933448 pbc="F F F"
Hg       0.00000000       0.00000000       0.00000000       0.00000000       0.00000000      -0.04217253
Hg       0.00000000       0.00000000       4.94181818       0.00000000       0.00000000       0.04217253
2
Properties=species:S:1:pos:R:3:forces:R:3 energy=-0.21896754504381494 pbc="F F F"
Hg       0.00000000       0.00000000       0.00000000       0.00000000       0.00000000      -0.04182465
Hg       0.00000000       0.00000000       5.00060606       0.00000000       0.00000000       0.04182465
2
Properties=species:S:1:pos:R:3:forces:R:3 energy=-0.2214255634018361 pbc="F F F"
Hg       0.00000000       0.00000000       0.00000000       0.00000000       0.00000000      -0.04189591
Hg       0.00000000       0.00000000       5.05939394       0.00000000       0.00000000       0.04189591
2
Properties=species:S:1:pos:R:3:forces:R:3 energy=-0.22390957063153438 pbc="F F F"
Hg       0.00000000       0.00000000       0.00000000       0.00000000       0.00000000      -0.04277917
Hg       0.00000000       0.00000000       5.11818182       0.00000000       0.00000000       0.04277917
2
Properties=species:S:1:pos:R:3:forces:R:3 energy=-0.22647518510420006 pbc="F F F"
Hg       0.00000000       0.00000000       0.00000000       0.00000000       0.00000000      -0.04466524
Hg       0.00000000       0.00000000       5.17696970       0.00000000       0.00000000       0.04466524
2
Properties=species:S:1:pos:R:3:forces:R:3 energy=-0.22917511719077213 pbc="F F F"
Hg       0.00000000       0.00000000       0.00000000       0.00000000       0.00000000      -0.04724688
Hg       0.00000000       0.00000000       5.23575758       0.00000000       0.00000000       0.04724688
2
Properties=species:S:1:pos:R:3:forces:R:3 energy=-0.2320242171813336 pbc="F F F"
Hg       0.00000000       0.00000000       0.00000000       0.00000000       0.00000000      -0.04950790
Hg       0.00000000       0.00000000       5.29454545       0.00000000       0.00000000       0.04950790
2
Properties=species:S:1:pos:R:3:forces:R:3 energy=-0.2349613464654471 pbc="F F F"
Hg       0.00000000       0.00000000       0.00000000       0.00000000       0.00000000      -0.05002169
Hg       0.00000000       0.00000000       5.35333333       0.00000000       0.00000000       0.05002169
2
Properties=species:S:1:pos:R:3:forces:R:3 energy=-0.23786249134596116 pbc="F F F"
Hg       0.00000000       0.00000000       0.00000000       0.00000000       0.00000000      -0.04846110
Hg       0.00000000       0.00000000       5.41212121       0.00000000       0.00000000       0.04846110
2
Properties=species:S:1:pos:R:3:forces:R:3 energy=-0.24066446024593474 pbc="F F F"
Hg       0.00000000       0.00000000       0.00000000       0.00000000       0.00000000      -0.04713867
Hg       0.00000000       0.00000000       5.47090909       0.00000000       0.00000000       0.04713867
2
Properties=species:S:1:pos:R:3:forces:R:3 energy=-0.24343185154893568 pbc="F F F"
Hg       0.00000000       0.00000000       0.00000000       0.00000000       0.00000000      -0.04690217
Hg       0.00000000       0.00000000       5.52969697       0.00000000       0.00000000       0.04690217
2
Properties=species:S:1:pos:R:3:forces:R:3 energy=-0.2461160426558733 pbc="F F F"
Hg       0.00000000       0.00000000       0.00000000       0.00000000       0.00000000      -0.04366309
Hg       0.00000000       0.00000000       5.58848485       0.00000000       0.00000000       0.04366309
2
Properties=species:S:1:pos:R:3:forces:R:3 energy=-0.24849415943448777 pbc="F F F"
Hg       0.00000000       0.00000000       0.00000000       0.00000000       0.00000000      -0.03705747
Hg       0.00000000       0.00000000       5.64727273       0.00000000       0.00000000       0.03705747
2
Properties=species:S:1:pos:R:3:forces:R:3 energy=-0.25049909821798083 pbc="F F F"
Hg       0.00000000       0.00000000       0.00000000       0.00000000       0.00000000      -0.03181124
Hg       0.00000000       0.00000000       5.70606061       0.00000000       0.00000000       0.03181124
2
Properties=species:S:1:pos:R:3:forces:R:3 energy=-0.25233818562750165 pbc="F F F"
Hg       0.00000000       0.00000000       0.00000000       0.00000000       0.00000000      -0.03110347
Hg       0.00000000       0.00000000       5.76484848       0.00000000       0.00000000       0.03110347
2
Properties=species:S:1:pos:R:3:forces:R:3 energy=-0.25409822487861494 pbc="F F F"
Hg       0.00000000       0.00000000       0.00000000       0.00000000       0.00000000      -0.02732731
Hg       0.00000000       0.00000000       5.82363636       0.00000000       0.00000000       0.02732731
2
Properties=species:S:1:pos:R:3:forces:R:3 energy=-0.25534205094774914 pbc="F F F"
Hg       0.00000000       0.00000000       0.00000000       0.00000000       0.00000000      -0.01400356
Hg       0.00000000       0.00000000       5.88242424       0.00000000       0.00000000       0.01400356
2
Properties=species:S:1:pos:R:3:forces:R:3 energy=-0.2557187334150726 pbc="F F F"
Hg       0.00000000       0.00000000       0.00000000       0.00000000       0.00000000       0.00051091
Hg       0.00000000       0.00000000       5.94121212       0.00000000       0.00000000      -0.00051091
2
Properties=species:S:1:pos:R:3:forces:R:3 energy=-0.25546335745115756 pbc="F F F"
Hg       0.00000000       0.00000000       0.00000000       0.00000000       0.00000000       0.00617705
Hg       0.00000000       0.00000000       6.00000000       0.00000000       0.00000000      -0.00617705
