2
Properties=species:S:1:pos:R:3:forces:R:3 energy=13593.424865692059 pbc="F F F"
Ho       0.00000000       0.00000000       0.00000000       0.00000000       0.00000000 -224150.75000000
Ho       0.00000000       0.00000000       0.18000000       0.00000000       0.00000000  224150.75000000
2
Properties=species:S:1:pos:R:3:forces:R:3 energy=5721.06207272331 pbc="F F F"
Ho       0.00000000       0.00000000       0.00000000       0.00000000       0.00000000  -75130.33593750
Ho       0.00000000       0.00000000       0.23878788       0.00000000       0.00000000   75130.33593750
2
Properties=species:S:1:pos:R:3:forces:R:3 energy=2862.263977020185 pbc="F F F"
Ho       0.00000000       0.00000000       0.00000000       0.00000000       0.00000000  -30116.21093750
Ho       0.00000000       0.00000000       0.29757576       0.00000000       0.00000000   30116.21093750
2
Properties=species:S:1:pos:R:3:forces:R:3 energy=1639.3208617858097 pbc="F F F"
Ho       0.00000000       0.00000000       0.00000000       0.00000000       0.00000000  -14065.43261719
Ho       0.00000000       0.00000000       0.35636364       0.00000000       0.00000000   14065.43261719
2
Properties=species:S:1:pos:R:3:forces:R:3 energy=1021.385070782856 pbc="F F F"
Ho       0.00000000       0.00000000       0.00000000       0.00000000       0.00000000   -7906.07373047
Ho       0.00000000       0.00000000       0.41515152       0.00000000       0.00000000    7906.07373047
2
Properties=species:S:1:pos:R:3:forces:R:3 energy=640.172668439106 pbc="F F F"
Ho       0.00000000       0.00000000       0.00000000       0.00000000       0.00000000   -5401.73193359
Ho       0.00000000       0.00000000       0.47393939       0.00000000       0.00000000    5401.73193359
2
Properties=species:S:1:pos:R:3:forces:R:3 energy=365.1340942330273 pbc="F F F"
Ho       0.00000000       0.00000000       0.00000000       0.00000000       0.00000000   -4015.84838867
Ho       0.00000000       0.00000000       0.53272727       0.00000000       0.00000000    4015.84838867
2
Properties=species:S:1:pos:R:3:forces:R:3 energy=169.58439638239335 pbc="F F F"
Ho       0.00000000       0.00000000       0.00000000       0.00000000       0.00000000   -2548.43847656
Ho       0.00000000       0.00000000       0.59151515       0.00000000       0.00000000    2548.43847656
2
Properties=species:S:1:pos:R:3:forces:R:3 energy=35.58391959592029 pbc="F F F"
Ho       0.00000000       0.00000000       0.00000000       0.00000000       0.00000000   -1628.17065430
Ho       0.00000000       0.00000000       0.65030303       0.00000000       0.00000000    1628.17065430
2
Properties=species:S:1:pos:R:3:forces:R:3 energy=2.7449864298303277 pbc="F F F"
Ho       0.00000000       0.00000000       0.00000000       0.00000000       0.00000000     412.57424927
Ho       0.00000000       0.00000000       0.70909091       0.00000000       0.00000000    -412.57424927
2
Properties=species:S:1:pos:R:3:forces:R:3 energy=55.60795616811775 pbc="F F F"
Ho       0.00000000       0.00000000       0.00000000       0.00000000       0.00000000    1523.12902832
Ho       0.00000000       0.00000000       0.76787879       0.00000000       0.00000000   -1523.12902832
2
Properties=species:S:1:pos:R:3:forces:R:3 energy=150.18252603499295 pbc="F F F"
Ho       0.00000000       0.00000000       0.00000000       0.00000000       0.00000000     922.70959473
Ho       0.00000000       0.00000000       0.82666667       0.00000000       0.00000000    -922.70959473
2
Properties=species:S:1:pos:R:3:forces:R:3 energy=181.07783571131833 pbc="F F F"
Ho       0.00000000       0.00000000       0.00000000       0.00000000       0.00000000      38.37943649
Ho       0.00000000       0.00000000       0.88545455       0.00000000       0.00000000     -38.37943649
2
Properties=species:S:1:pos:R:3:forces:R:3 energy=170.05989169216303 pbc="F F F"
Ho       0.00000000       0.00000000       0.00000000       0.00000000       0.00000000    -368.27337646
Ho       0.00000000       0.00000000       0.94424242       0.00000000       0.00000000     368.27337646
2
Properties=species:S:1:pos:R:3:forces:R:3 energy=144.30867141986184 pbc="F F F"
Ho       0.00000000       0.00000000       0.00000000       0.00000000       0.00000000    -464.67642212
Ho       0.00000000       0.00000000       1.00303030       0.00000000       0.00000000     464.67642212
2
Properties=species:S:1:pos:R:3:forces:R:3 energy=119.69904523272159 pbc="F F F"
Ho       0.00000000       0.00000000       0.00000000       0.00000000       0.00000000    -327.34115601
Ho       0.00000000       0.00000000       1.06181818       0.00000000       0.00000000     327.34115601
2
Properties=species:S:1:pos:R:3:forces:R:3 energy=103.9208019997868 pbc="F F F"
Ho       0.00000000       0.00000000       0.00000000       0.00000000       0.00000000    -340.53366089
Ho       0.00000000       0.00000000       1.12060606       0.00000000       0.00000000     340.53366089
2
Properties=species:S:1:pos:R:3:forces:R:3 energy=84.06238931720083 pbc="F F F"
Ho       0.00000000       0.00000000       0.00000000       0.00000000       0.00000000    -305.87576294
Ho       0.00000000       0.00000000       1.17939394       0.00000000       0.00000000     305.87576294
2
Properties=species:S:1:pos:R:3:forces:R:3 energy=68.60655721262754 pbc="F F F"
Ho       0.00000000       0.00000000       0.00000000       0.00000000       0.00000000    -223.66294861
Ho       0.00000000       0.00000000       1.23818182       0.00000000       0.00000000     223.66294861
2
Properties=species:S:1:pos:R:3:forces:R:3 energy=57.01185140889524 pbc="F F F"
Ho       0.00000000       0.00000000       0.00000000       0.00000000       0.00000000    -176.21838379
Ho       0.00000000       0.00000000       1.29696970       0.00000000       0.00000000     176.21838379
2
Properties=species:S:1:pos:R:3:forces:R:3 energy=47.476010642163914 pbc="F F F"
Ho       0.00000000       0.00000000       0.00000000       0.00000000       0.00000000    -150.15145874
Ho       0.00000000       0.00000000       1.35575758       0.00000000       0.00000000     150.15145874
2
Properties=species:S:1:pos:R:3:forces:R:3 energy=39.24965682212944 pbc="F F F"
Ho       0.00000000       0.00000000       0.00000000       0.00000000       0.00000000    -129.94264221
Ho       0.00000000       0.00000000       1.41454545       0.00000000       0.00000000     129.94264221
2
Properties=species:S:1:pos:R:3:forces:R:3 energy=32.183696396889864 pbc="F F F"
Ho       0.00000000       0.00000000       0.00000000       0.00000000       0.00000000    -110.75486755
Ho       0.00000000       0.00000000       1.47333333       0.00000000       0.00000000     110.75486755
2
Properties=species:S:1:pos:R:3:forces:R:3 energy=26.15869133444264 pbc="F F F"
Ho       0.00000000       0.00000000       0.00000000       0.00000000       0.00000000     -94.92593384
Ho       0.00000000       0.00000000       1.53212121       0.00000000       0.00000000      94.92593384
2
Properties=species:S:1:pos:R:3:forces:R:3 energy=20.960663960451242 pbc="F F F"
Ho       0.00000000       0.00000000       0.00000000       0.00000000       0.00000000     -82.15904999
Ho       0.00000000       0.00000000       1.59090909       0.00000000       0.00000000      82.15904999
2
Properties=species:S:1:pos:R:3:forces:R:3 energy=16.495212113738713 pbc="F F F"
Ho       0.00000000       0.00000000       0.00000000       0.00000000       0.00000000     -69.71318054
Ho       0.00000000       0.00000000       1.64969697       0.00000000       0.00000000      69.71318054
2
Properties=species:S:1:pos:R:3:forces:R:3 energy=12.758061628759533 pbc="F F F"
Ho       0.00000000       0.00000000       0.00000000       0.00000000       0.00000000     -57.61632538
Ho       0.00000000       0.00000000       1.70848485       0.00000000       0.00000000      57.61632538
2
Properties=species:S:1:pos:R:3:forces:R:3 energy=9.686169101222683 pbc="F F F"
Ho       0.00000000       0.00000000       0.00000000       0.00000000       0.00000000     -47.24276352
Ho       0.00000000       0.00000000       1.76727273       0.00000000       0.00000000      47.24276352
2
Properties=species:S:1:pos:R:3:forces:R:3 energy=7.16338059067576 pbc="F F F"
Ho       0.00000000       0.00000000       0.00000000       0.00000000       0.00000000     -38.88489532
Ho       0.00000000       0.00000000       1.82606061       0.00000000       0.00000000      38.88489532
2
Properties=species:S:1:pos:R:3:forces:R:3 energy=5.085743930036333 pbc="F F F"
Ho       0.00000000       0.00000000       0.00000000       0.00000000       0.00000000     -31.98243523
Ho       0.00000000       0.00000000       1.88484848       0.00000000       0.00000000      31.98243523
2
Properties=species:S:1:pos:R:3:forces:R:3 energy=3.386572554747725 pbc="F F F"
Ho       0.00000000       0.00000000       0.00000000       0.00000000       0.00000000     -25.93260002
Ho       0.00000000       0.00000000       1.94363636       0.00000000       0.00000000      25.93260002
2
Properties=species:S:1:pos:R:3:forces:R:3 energy=2.0255259065135856 pbc="F F F"
Ho       0.00000000       0.00000000       0.00000000       0.00000000       0.00000000     -20.46329689
Ho       0.00000000       0.00000000       2.00242424       0.00000000       0.00000000      20.46329689
2
Properties=species:S:1:pos:R:3:forces:R:3 energy=0.969029997402335 pbc="F F F"
Ho       0.00000000       0.00000000       0.00000000       0.00000000       0.00000000     -15.58603477
Ho       0.00000000       0.00000000       2.06121212       0.00000000       0.00000000      15.58603477
2
Properties=species:S:1:pos:R:3:forces:R:3 energy=0.17936932102997327 pbc="F F F"
Ho       0.00000000       0.00000000       0.00000000       0.00000000       0.00000000     -11.40367508
Ho       0.00000000       0.00000000       2.12000000       0.00000000       0.00000000      11.40367508
2
Properties=species:S:1:pos:R:3:forces:R:3 energy=-0.3874535971671583 pbc="F F F"
Ho       0.00000000       0.00000000       0.00000000       0.00000000       0.00000000      -8.02002430
Ho       0.00000000       0.00000000       2.17878788       0.00000000       0.00000000       8.02002430
2
Properties=species:S:1:pos:R:3:forces:R:3 energy=-0.7803746173724282 pbc="F F F"
Ho       0.00000000       0.00000000       0.00000000       0.00000000       0.00000000      -5.48900032
Ho       0.00000000       0.00000000       2.23757576       0.00000000       0.00000000       5.48900032
2
Properties=species:S:1:pos:R:3:forces:R:3 energy=-1.0487223943782746 pbc="F F F"
Ho       0.00000000       0.00000000       0.00000000       0.00000000       0.00000000      -3.76672578
Ho       0.00000000       0.00000000       2.29636364       0.00000000       0.00000000       3.76672578
2
Properties=species:S:1:pos:R:3:forces:R:3 energy=-1.2367533140698659 pbc="F F F"
Ho       0.00000000       0.00000000       0.00000000       0.00000000       0.00000000      -2.73233557
Ho       0.00000000       0.00000000       2.35515152       0.00000000       0.00000000       2.73233557
2
Properties=species:S:1:pos:R:3:forces:R:3 energy=-1.3803022816767008 pbc="F F F"
Ho       0.00000000       0.00000000       0.00000000       0.00000000       0.00000000      -2.22374105
Ho       0.00000000       0.00000000       2.41393939       0.00000000       0.00000000       2.22374105
2
Properties=species:S:1:pos:R:3:forces:R:3 energy=-1.5048113324087287 pbc="F F F"
Ho       0.00000000       0.00000000       0.00000000       0.00000000       0.00000000      -2.05199385
Ho       0.00000000       0.00000000       2.47272727       0.00000000       0.00000000       2.05199385
2
Properties=species:S:1:pos:R:3:forces:R:3 energy=-1.624497564702469 pbc="F F F"
Ho       0.00000000       0.00000000       0.00000000       0.00000000       0.00000000      -2.03142977
Ho       0.00000000       0.00000000       2.53151515       0.00000000       0.00000000       2.03142977
2
Properties=species:S:1:pos:R:3:forces:R:3 energy=-1.7438341049035815 pbc="F F F"
Ho       0.00000000       0.00000000       0.00000000       0.00000000       0.00000000      -2.02209520
Ho       0.00000000       0.00000000       2.59030303       0.00000000       0.00000000       2.02209520
2
Properties=species:S:1:pos:R:3:forces:R:3 energy=-1.8609576898014821 pbc="F F F"
Ho       0.00000000       0.00000000       0.00000000       0.00000000       0.00000000      -1.94883621
Ho       0.00000000       0.00000000       2.64909091       0.00000000       0.00000000       1.94883621
2
Properties=species:S:1:pos:R:3:forces:R:3 energy=-1.9712894305557542 pbc="F F F"
Ho       0.00000000       0.00000000       0.00000000       0.00000000       0.00000000      -1.79091394
Ho       0.00000000       0.00000000       2.70787879       0.00000000       0.00000000       1.79091394
2
Properties=species:S:1:pos:R:3:forces:R:3 energy=-2.0700848617904875 pbc="F F F"
Ho       0.00000000       0.00000000       0.00000000       0.00000000       0.00000000      -1.55986989
Ho       0.00000000       0.00000000       2.76666667       0.00000000       0.00000000       1.55986989
2
Properties=species:S:1:pos:R:3:forces:R:3 energy=-2.153738882505433 pbc="F F F"
Ho       0.00000000       0.00000000       0.00000000       0.00000000       0.00000000      -1.28018498
Ho       0.00000000       0.00000000       2.82545455       0.00000000       0.00000000       1.28018498
2
Properties=species:S:1:pos:R:3:forces:R:3 energy=-2.220149970965848 pbc="F F F"
Ho       0.00000000       0.00000000       0.00000000       0.00000000       0.00000000      -0.97714597
Ho       0.00000000       0.00000000       2.88424242       0.00000000       0.00000000       0.97714597
2
Properties=species:S:1:pos:R:3:forces:R:3 energy=-2.268578827827668 pbc="F F F"
Ho       0.00000000       0.00000000       0.00000000       0.00000000       0.00000000      -0.67144775
Ho       0.00000000       0.00000000       2.94303030       0.00000000       0.00000000       0.67144775
2
Properties=species:S:1:pos:R:3:forces:R:3 energy=-2.2993448946288875 pbc="F F F"
Ho       0.00000000       0.00000000       0.00000000       0.00000000       0.00000000      -0.37835795
Ho       0.00000000       0.00000000       3.00181818       0.00000000       0.00000000       0.37835795
2
Properties=species:S:1:pos:R:3:forces:R:3 energy=-2.313529535329866 pbc="F F F"
Ho       0.00000000       0.00000000       0.00000000       0.00000000       0.00000000      -0.10884951
Ho       0.00000000       0.00000000       3.06060606       0.00000000       0.00000000       0.10884951
2
Properties=species:S:1:pos:R:3:forces:R:3 energy=-2.3127548702350387 pbc="F F F"
Ho       0.00000000       0.00000000       0.00000000       0.00000000       0.00000000       0.12957920
Ho       0.00000000       0.00000000       3.11939394       0.00000000       0.00000000      -0.12957920
2
Properties=species:S:1:pos:R:3:forces:R:3 energy=-2.2989834687085087 pbc="F F F"
Ho       0.00000000       0.00000000       0.00000000       0.00000000       0.00000000       0.33293611
Ho       0.00000000       0.00000000       3.17818182       0.00000000       0.00000000      -0.33293611
2
Properties=species:S:1:pos:R:3:forces:R:3 energy=-2.2743065067629202 pbc="F F F"
Ho       0.00000000       0.00000000       0.00000000       0.00000000       0.00000000       0.50082684
Ho       0.00000000       0.00000000       3.23696970       0.00000000       0.00000000      -0.50082684
2
Properties=species:S:1:pos:R:3:forces:R:3 energy=-2.2407449259644867 pbc="F F F"
Ho       0.00000000       0.00000000       0.00000000       0.00000000       0.00000000       0.63580692
Ho       0.00000000       0.00000000       3.29575758       0.00000000       0.00000000      -0.63580692
2
Properties=species:S:1:pos:R:3:forces:R:3 energy=-2.2001150160395326 pbc="F F F"
Ho       0.00000000       0.00000000       0.00000000       0.00000000       0.00000000       0.74202919
Ho       0.00000000       0.00000000       3.35454545       0.00000000       0.00000000      -0.74202919
2
Properties=species:S:1:pos:R:3:forces:R:3 energy=-2.1539768657762517 pbc="F F F"
Ho       0.00000000       0.00000000       0.00000000       0.00000000       0.00000000       0.82385516
Ho       0.00000000       0.00000000       3.41333333       0.00000000       0.00000000      -0.82385516
2
Properties=species:S:1:pos:R:3:forces:R:3 energy=-2.103654265808373 pbc="F F F"
Ho       0.00000000       0.00000000       0.00000000       0.00000000       0.00000000       0.88497692
Ho       0.00000000       0.00000000       3.47212121       0.00000000       0.00000000      -0.88497692
2
Properties=species:S:1:pos:R:3:forces:R:3 energy=-2.050277007738061 pbc="F F F"
Ho       0.00000000       0.00000000       0.00000000       0.00000000       0.00000000       0.92816532
Ho       0.00000000       0.00000000       3.53090909       0.00000000       0.00000000      -0.92816532
2
Properties=species:S:1:pos:R:3:forces:R:3 energy=-1.9948358851358685 pbc="F F F"
Ho       0.00000000       0.00000000       0.00000000       0.00000000       0.00000000       0.95544237
Ho       0.00000000       0.00000000       3.58969697       0.00000000       0.00000000      -0.95544237
2
Properties=species:S:1:pos:R:3:forces:R:3 energy=-1.9382202749772057 pbc="F F F"
Ho       0.00000000       0.00000000       0.00000000       0.00000000       0.00000000       0.96842295
Ho       0.00000000       0.00000000       3.64848485       0.00000000       0.00000000      -0.96842295
2
Properties=species:S:1:pos:R:3:forces:R:3 energy=-1.8812234335362417 pbc="F F F"
Ho       0.00000000       0.00000000       0.00000000       0.00000000       0.00000000       0.96865547
Ho       0.00000000       0.00000000       3.70727273       0.00000000       0.00000000      -0.96865547
2
Properties=species:S:1:pos:R:3:forces:R:3 energy=-1.8245448425578261 pbc="F F F"
Ho       0.00000000       0.00000000       0.00000000       0.00000000       0.00000000       0.95788133
Ho       0.00000000       0.00000000       3.76606061       0.00000000       0.00000000      -0.95788133
2
Properties=species:S:1:pos:R:3:forces:R:3 energy=-1.768774762735003 pbc="F F F"
Ho       0.00000000       0.00000000       0.00000000       0.00000000       0.00000000       0.93818486
Ho       0.00000000       0.00000000       3.82484848       0.00000000       0.00000000      -0.93818486
2
Properties=species:S:1:pos:R:3:forces:R:3 energy=-1.7143641244439087 pbc="F F F"
Ho       0.00000000       0.00000000       0.00000000       0.00000000       0.00000000       0.91199464
Ho       0.00000000       0.00000000       3.88363636       0.00000000       0.00000000      -0.91199464
2
Properties=species:S:1:pos:R:3:forces:R:3 energy=-1.661621496826379 pbc="F F F"
Ho       0.00000000       0.00000000       0.00000000       0.00000000       0.00000000       0.88193953
Ho       0.00000000       0.00000000       3.94242424       0.00000000       0.00000000      -0.88193953
2
Properties=species:S:1:pos:R:3:forces:R:3 energy=-1.6106960040156293 pbc="F F F"
Ho       0.00000000       0.00000000       0.00000000       0.00000000       0.00000000       0.85055721
Ho       0.00000000       0.00000000       4.00121212       0.00000000       0.00000000      -0.85055721
2
Properties=species:S:1:pos:R:3:forces:R:3 energy=-1.5616011986723863 pbc="F F F"
Ho       0.00000000       0.00000000       0.00000000       0.00000000       0.00000000       0.81995505
Ho       0.00000000       0.00000000       4.06000000       0.00000000       0.00000000      -0.81995505
2
Properties=species:S:1:pos:R:3:forces:R:3 energy=-1.514245711443591 pbc="F F F"
Ho       0.00000000       0.00000000       0.00000000       0.00000000       0.00000000       0.79158247
Ho       0.00000000       0.00000000       4.11878788       0.00000000       0.00000000      -0.79158247
2
Properties=species:S:1:pos:R:3:forces:R:3 energy=-1.4684725341751044 pbc="F F F"
Ho       0.00000000       0.00000000       0.00000000       0.00000000       0.00000000       0.76612419
Ho       0.00000000       0.00000000       4.17757576       0.00000000       0.00000000      -0.76612419
2
Properties=species:S:1:pos:R:3:forces:R:3 energy=-1.4241086426543816 pbc="F F F"
Ho       0.00000000       0.00000000       0.00000000       0.00000000       0.00000000       0.74360830
Ho       0.00000000       0.00000000       4.23636364       0.00000000       0.00000000      -0.74360830
2
Properties=species:S:1:pos:R:3:forces:R:3 energy=-1.380992659501292 pbc="F F F"
Ho       0.00000000       0.00000000       0.00000000       0.00000000       0.00000000       0.72356641
Ho       0.00000000       0.00000000       4.29515152       0.00000000       0.00000000      -0.72356641
2
Properties=species:S:1:pos:R:3:forces:R:3 energy=-1.339001319798352 pbc="F F F"
Ho       0.00000000       0.00000000       0.00000000       0.00000000       0.00000000       0.70527643
Ho       0.00000000       0.00000000       4.35393939       0.00000000       0.00000000      -0.70527643
2
Properties=species:S:1:pos:R:3:forces:R:3 energy=-1.2980518235982934 pbc="F F F"
Ho       0.00000000       0.00000000       0.00000000       0.00000000       0.00000000       0.68793321
Ho       0.00000000       0.00000000       4.41272727       0.00000000       0.00000000      -0.68793321
2
Properties=species:S:1:pos:R:3:forces:R:3 energy=-1.258112070083986 pbc="F F F"
Ho       0.00000000       0.00000000       0.00000000       0.00000000       0.00000000       0.67080700
Ho       0.00000000       0.00000000       4.47151515       0.00000000       0.00000000      -0.67080700
2
Properties=species:S:1:pos:R:3:forces:R:3 energy=-1.2191875508822294 pbc="F F F"
Ho       0.00000000       0.00000000       0.00000000       0.00000000       0.00000000       0.65330678
Ho       0.00000000       0.00000000       4.53030303       0.00000000       0.00000000      -0.65330678
2
Properties=species:S:1:pos:R:3:forces:R:3 energy=-1.1813153147394961 pbc="F F F"
Ho       0.00000000       0.00000000       0.00000000       0.00000000       0.00000000       0.63500112
Ho       0.00000000       0.00000000       4.58909091       0.00000000       0.00000000      -0.63500112
2
Properties=species:S:1:pos:R:3:forces:R:3 energy=-1.1445495443658498 pbc="F F F"
Ho       0.00000000       0.00000000       0.00000000       0.00000000       0.00000000       0.61560321
Ho       0.00000000       0.00000000       4.64787879       0.00000000       0.00000000      -0.61560321
2
Properties=species:S:1:pos:R:3:forces:R:3 energy=-1.1089599928749383 pbc="F F F"
Ho       0.00000000       0.00000000       0.00000000       0.00000000       0.00000000       0.59491271
Ho       0.00000000       0.00000000       4.70666667       0.00000000       0.00000000      -0.59491271
2
Properties=species:S:1:pos:R:3:forces:R:3 energy=-1.0746301409597567 pbc="F F F"
Ho       0.00000000       0.00000000       0.00000000       0.00000000       0.00000000       0.57280403
Ho       0.00000000       0.00000000       4.76545455       0.00000000       0.00000000      -0.57280403
2
Properties=species:S:1:pos:R:3:forces:R:3 energy=-1.041639264814061 pbc="F F F"
Ho       0.00000000       0.00000000       0.00000000       0.00000000       0.00000000       0.54925334
Ho       0.00000000       0.00000000       4.82424242       0.00000000       0.00000000      -0.54925334
2
Properties=species:S:1:pos:R:3:forces:R:3 energy=-1.0100777265996512 pbc="F F F"
Ho       0.00000000       0.00000000       0.00000000       0.00000000       0.00000000       0.52442026
Ho       0.00000000       0.00000000       4.88303030       0.00000000       0.00000000      -0.52442026
2
Properties=species:S:1:pos:R:3:forces:R:3 energy=-0.9799979414145003 pbc="F F F"
Ho       0.00000000       0.00000000       0.00000000       0.00000000       0.00000000       0.49875450
Ho       0.00000000       0.00000000       4.94181818       0.00000000       0.00000000      -0.49875450
2
Properties=species:S:1:pos:R:3:forces:R:3 energy=-0.9514341533635311 pbc="F F F"
Ho       0.00000000       0.00000000       0.00000000       0.00000000       0.00000000       0.47312382
Ho       0.00000000       0.00000000       5.00060606       0.00000000       0.00000000      -0.47312382
2
Properties=species:S:1:pos:R:3:forces:R:3 energy=-0.9243455891505881 pbc="F F F"
Ho       0.00000000       0.00000000       0.00000000       0.00000000       0.00000000       0.44868773
Ho       0.00000000       0.00000000       5.05939394       0.00000000       0.00000000      -0.44868773
2
Properties=species:S:1:pos:R:3:forces:R:3 energy=-0.8986329040406438 pbc="F F F"
Ho       0.00000000       0.00000000       0.00000000       0.00000000       0.00000000       0.42659596
Ho       0.00000000       0.00000000       5.11818182       0.00000000       0.00000000      -0.42659596
2
Properties=species:S:1:pos:R:3:forces:R:3 energy=-0.8741341008175321 pbc="F F F"
Ho       0.00000000       0.00000000       0.00000000       0.00000000       0.00000000       0.40730438
Ho       0.00000000       0.00000000       5.17696970       0.00000000       0.00000000      -0.40730438
2
Properties=species:S:1:pos:R:3:forces:R:3 energy=-0.8507103820632028 pbc="F F F"
Ho       0.00000000       0.00000000       0.00000000       0.00000000       0.00000000       0.38968790
Ho       0.00000000       0.00000000       5.23575758       0.00000000       0.00000000      -0.38968790
2
Properties=species:S:1:pos:R:3:forces:R:3 energy=-0.8283479220448251 pbc="F F F"
Ho       0.00000000       0.00000000       0.00000000       0.00000000       0.00000000       0.37044883
Ho       0.00000000       0.00000000       5.29454545       0.00000000       0.00000000      -0.37044883
2
Properties=species:S:1:pos:R:3:forces:R:3 energy=-0.8072609015548249 pbc="F F F"
Ho       0.00000000       0.00000000       0.00000000       0.00000000       0.00000000       0.34595287
Ho       0.00000000       0.00000000       5.35333333       0.00000000       0.00000000      -0.34595287
2
Properties=species:S:1:pos:R:3:forces:R:3 energy=-0.787727675165224 pbc="F F F"
Ho       0.00000000       0.00000000       0.00000000       0.00000000       0.00000000       0.31911042
Ho       0.00000000       0.00000000       5.41212121       0.00000000       0.00000000      -0.31911042
2
Properties=species:S:1:pos:R:3:forces:R:3 energy=-0.7695575469075282 pbc="F F F"
Ho       0.00000000       0.00000000       0.00000000       0.00000000       0.00000000       0.30110678
Ho       0.00000000       0.00000000       5.47090909       0.00000000       0.00000000      -0.30110678
2
Properties=species:S:1:pos:R:3:forces:R:3 energy=-0.7521922959897116 pbc="F F F"
Ho       0.00000000       0.00000000       0.00000000       0.00000000       0.00000000       0.28888321
Ho       0.00000000       0.00000000       5.52969697       0.00000000       0.00000000      -0.28888321
2
Properties=species:S:1:pos:R:3:forces:R:3 energy=-0.7358721959514292 pbc="F F F"
Ho       0.00000000       0.00000000       0.00000000       0.00000000       0.00000000       0.26341623
Ho       0.00000000       0.00000000       5.58848485       0.00000000       0.00000000      -0.26341623
2
Properties=species:S:1:pos:R:3:forces:R:3 energy=-0.7214478796463741 pbc="F F F"
Ho       0.00000000       0.00000000       0.00000000       0.00000000       0.00000000       0.22751743
Ho       0.00000000       0.00000000       5.64727273       0.00000000       0.00000000      -0.22751743
2
Properties=species:S:1:pos:R:3:forces:R:3 energy=-0.7088372118349568 pbc="F F F"
Ho       0.00000000       0.00000000       0.00000000       0.00000000       0.00000000       0.20620510
Ho       0.00000000       0.00000000       5.70606061       0.00000000       0.00000000      -0.20620510
2
Properties=species:S:1:pos:R:3:forces:R:3 energy=-0.6965494995671304 pbc="F F F"
Ho       0.00000000       0.00000000       0.00000000       0.00000000       0.00000000       0.21440157
Ho       0.00000000       0.00000000       5.76484848       0.00000000       0.00000000      -0.21440157
2
Properties=species:S:1:pos:R:3:forces:R:3 energy=-0.6838881248092669 pbc="F F F"
Ho       0.00000000       0.00000000       0.00000000       0.00000000       0.00000000       0.20852108
Ho       0.00000000       0.00000000       5.82363636       0.00000000       0.00000000      -0.20852108
2
Properties=species:S:1:pos:R:3:forces:R:3 energy=-0.6732637741973604 pbc="F F F"
Ho       0.00000000       0.00000000       0.00000000       0.00000000       0.00000000       0.14572911
Ho       0.00000000       0.00000000       5.88242424       0.00000000       0.00000000      -0.14572911
2
Properties=species:S:1:pos:R:3:forces:R:3 energy=-0.6670876077007075 pbc="F F F"
Ho       0.00000000       0.00000000       0.00000000       0.00000000       0.00000000       0.06686120
Ho       0.00000000       0.00000000       5.94121212       0.00000000       0.00000000      -0.06686120
2
Properties=species:S:1:pos:R:3:forces:R:3 energy=-0.6644688583583755 pbc="F F F"
Ho       0.00000000       0.00000000       0.00000000       0.00000000       0.00000000       0.03309826
Ho       0.00000000       0.00000000       6.00000000       0.00000000       0.00000000      -0.03309826
