2
Properties=species:S:1:pos:R:3:forces:R:3 energy=16314.577869395509 pbc="F F F"
Ir       0.00000000       0.00000000       0.00000000       0.00000000       0.00000000 -275205.28125000
Ir       0.00000000       0.00000000       0.18000000       0.00000000       0.00000000  275205.28125000
2
Properties=species:S:1:pos:R:3:forces:R:3 energy=6717.937732676759 pbc="F F F"
Ir       0.00000000       0.00000000       0.00000000       0.00000000       0.00000000  -90529.76562500
Ir       0.00000000       0.00000000       0.23878788       0.00000000       0.00000000   90529.76562500
2
Properties=species:S:1:pos:R:3:forces:R:3 energy=3314.9882697893013 pbc="F F F"
Ir       0.00000000       0.00000000       0.00000000       0.00000000       0.00000000  -35088.00781250
Ir       0.00000000       0.00000000       0.29757576       0.00000000       0.00000000   35088.00781250
2
Properties=species:S:1:pos:R:3:forces:R:3 energy=1929.4150276049693 pbc="F F F"
Ir       0.00000000       0.00000000       0.00000000       0.00000000       0.00000000  -15189.52148438
Ir       0.00000000       0.00000000       0.35636364       0.00000000       0.00000000   15189.52148438
2
Properties=species:S:1:pos:R:3:forces:R:3 energy=1300.9088020253673 pbc="F F F"
Ir       0.00000000       0.00000000       0.00000000       0.00000000       0.00000000   -7366.26416016
Ir       0.00000000       0.00000000       0.41515152       0.00000000       0.00000000    7366.26416016
2
Properties=species:S:1:pos:R:3:forces:R:3 energy=973.1337165888199 pbc="F F F"
Ir       0.00000000       0.00000000       0.00000000       0.00000000       0.00000000   -4274.15869141
Ir       0.00000000       0.00000000       0.47393939       0.00000000       0.00000000    4274.15869141
2
Properties=species:S:1:pos:R:3:forces:R:3 energy=760.8398933688071 pbc="F F F"
Ir       0.00000000       0.00000000       0.00000000       0.00000000       0.00000000   -3139.24267578
Ir       0.00000000       0.00000000       0.53272727       0.00000000       0.00000000    3139.24267578
2
Properties=species:S:1:pos:R:3:forces:R:3 energy=602.9604378435826 pbc="F F F"
Ir       0.00000000       0.00000000       0.00000000       0.00000000       0.00000000   -1718.05944824
Ir       0.00000000       0.00000000       0.59151515       0.00000000       0.00000000    1718.05944824
2
Properties=species:S:1:pos:R:3:forces:R:3 energy=497.1888924967827 pbc="F F F"
Ir       0.00000000       0.00000000       0.00000000       0.00000000       0.00000000   -1802.45727539
Ir       0.00000000       0.00000000       0.65030303       0.00000000       0.00000000    1802.45727539
2
Properties=species:S:1:pos:R:3:forces:R:3 energy=389.5175058889065 pbc="F F F"
Ir       0.00000000       0.00000000       0.00000000       0.00000000       0.00000000   -1802.13256836
Ir       0.00000000       0.00000000       0.70909091       0.00000000       0.00000000    1802.13256836
2
Properties=species:S:1:pos:R:3:forces:R:3 energy=297.949818065352 pbc="F F F"
Ir       0.00000000       0.00000000       0.00000000       0.00000000       0.00000000   -1312.56823730
Ir       0.00000000       0.00000000       0.76787879       0.00000000       0.00000000    1312.56823730
2
Properties=species:S:1:pos:R:3:forces:R:3 energy=232.6709639328215 pbc="F F F"
Ir       0.00000000       0.00000000       0.00000000       0.00000000       0.00000000    -972.73376465
Ir       0.00000000       0.00000000       0.82666667       0.00000000       0.00000000     972.73376465
2
Properties=species:S:1:pos:R:3:forces:R:3 energy=181.211415324751 pbc="F F F"
Ir       0.00000000       0.00000000       0.00000000       0.00000000       0.00000000    -785.22863770
Ir       0.00000000       0.00000000       0.88545455       0.00000000       0.00000000     785.22863770
2
Properties=species:S:1:pos:R:3:forces:R:3 energy=139.28540568075965 pbc="F F F"
Ir       0.00000000       0.00000000       0.00000000       0.00000000       0.00000000    -645.51696777
Ir       0.00000000       0.00000000       0.94424242       0.00000000       0.00000000     645.51696777
2
Properties=species:S:1:pos:R:3:forces:R:3 energy=105.60581802496338 pbc="F F F"
Ir       0.00000000       0.00000000       0.00000000       0.00000000       0.00000000    -496.66680908
Ir       0.00000000       0.00000000       1.00303030       0.00000000       0.00000000     496.66680908
2
Properties=species:S:1:pos:R:3:forces:R:3 energy=80.69260328425003 pbc="F F F"
Ir       0.00000000       0.00000000       0.00000000       0.00000000       0.00000000    -357.57467651
Ir       0.00000000       0.00000000       1.06181818       0.00000000       0.00000000     357.57467651
2
Properties=species:S:1:pos:R:3:forces:R:3 energy=62.638885905288795 pbc="F F F"
Ir       0.00000000       0.00000000       0.00000000       0.00000000       0.00000000    -263.66064453
Ir       0.00000000       0.00000000       1.12060606       0.00000000       0.00000000     263.66064453
2
Properties=species:S:1:pos:R:3:forces:R:3 energy=49.04860120897448 pbc="F F F"
Ir       0.00000000       0.00000000       0.00000000       0.00000000       0.00000000    -202.94354248
Ir       0.00000000       0.00000000       1.17939394       0.00000000       0.00000000     202.94354248
2
Properties=species:S:1:pos:R:3:forces:R:3 energy=38.373245408273675 pbc="F F F"
Ir       0.00000000       0.00000000       0.00000000       0.00000000       0.00000000    -162.90274048
Ir       0.00000000       0.00000000       1.23818182       0.00000000       0.00000000     162.90274048
2
Properties=species:S:1:pos:R:3:forces:R:3 energy=29.673659208078316 pbc="F F F"
Ir       0.00000000       0.00000000       0.00000000       0.00000000       0.00000000    -134.25469971
Ir       0.00000000       0.00000000       1.29696970       0.00000000       0.00000000     134.25469971
2
Properties=species:S:1:pos:R:3:forces:R:3 energy=22.500013633538792 pbc="F F F"
Ir       0.00000000       0.00000000       0.00000000       0.00000000       0.00000000    -110.27722931
Ir       0.00000000       0.00000000       1.35575758       0.00000000       0.00000000     110.27722931
2
Properties=species:S:1:pos:R:3:forces:R:3 energy=16.655729844547086 pbc="F F F"
Ir       0.00000000       0.00000000       0.00000000       0.00000000       0.00000000     -89.08372498
Ir       0.00000000       0.00000000       1.41454545       0.00000000       0.00000000      89.08372498
2
Properties=species:S:1:pos:R:3:forces:R:3 energy=11.94224060271677 pbc="F F F"
Ir       0.00000000       0.00000000       0.00000000       0.00000000       0.00000000     -72.11656189
Ir       0.00000000       0.00000000       1.47333333       0.00000000       0.00000000      72.11656189
2
Properties=species:S:1:pos:R:3:forces:R:3 energy=8.078886416183385 pbc="F F F"
Ir       0.00000000       0.00000000       0.00000000       0.00000000       0.00000000     -60.03796387
Ir       0.00000000       0.00000000       1.53212121       0.00000000       0.00000000      60.03796387
2
Properties=species:S:1:pos:R:3:forces:R:3 energy=4.820946125714011 pbc="F F F"
Ir       0.00000000       0.00000000       0.00000000       0.00000000       0.00000000     -51.13409805
Ir       0.00000000       0.00000000       1.59090909       0.00000000       0.00000000      51.13409805
2
Properties=species:S:1:pos:R:3:forces:R:3 energy=2.0443420420785636 pbc="F F F"
Ir       0.00000000       0.00000000       0.00000000       0.00000000       0.00000000     -43.42878723
Ir       0.00000000       0.00000000       1.64969697       0.00000000       0.00000000      43.42878723
2
Properties=species:S:1:pos:R:3:forces:R:3 energy=-0.2948496523688891 pbc="F F F"
Ir       0.00000000       0.00000000       0.00000000       0.00000000       0.00000000     -36.23900223
Ir       0.00000000       0.00000000       1.70848485       0.00000000       0.00000000      36.23900223
2
Properties=species:S:1:pos:R:3:forces:R:3 energy=-2.2278534373369165 pbc="F F F"
Ir       0.00000000       0.00000000       0.00000000       0.00000000       0.00000000     -29.62343979
Ir       0.00000000       0.00000000       1.76727273       0.00000000       0.00000000      29.62343979
2
Properties=species:S:1:pos:R:3:forces:R:3 energy=-3.789510725924123 pbc="F F F"
Ir       0.00000000       0.00000000       0.00000000       0.00000000       0.00000000     -23.60309029
Ir       0.00000000       0.00000000       1.82606061       0.00000000       0.00000000      23.60309029
2
Properties=species:S:1:pos:R:3:forces:R:3 energy=-5.014878399772164 pbc="F F F"
Ir       0.00000000       0.00000000       0.00000000       0.00000000       0.00000000     -18.19096756
Ir       0.00000000       0.00000000       1.88484848       0.00000000       0.00000000      18.19096756
2
Properties=species:S:1:pos:R:3:forces:R:3 energy=-5.941524972387726 pbc="F F F"
Ir       0.00000000       0.00000000       0.00000000       0.00000000       0.00000000     -13.45127773
Ir       0.00000000       0.00000000       1.94363636       0.00000000       0.00000000      13.45127773
2
Properties=species:S:1:pos:R:3:forces:R:3 energy=-6.610297481845176 pbc="F F F"
Ir       0.00000000       0.00000000       0.00000000       0.00000000       0.00000000      -9.41698837
Ir       0.00000000       0.00000000       2.00242424       0.00000000       0.00000000       9.41698837
2
Properties=species:S:1:pos:R:3:forces:R:3 energy=-7.061803168997745 pbc="F F F"
Ir       0.00000000       0.00000000       0.00000000       0.00000000       0.00000000      -6.04832602
Ir       0.00000000       0.00000000       2.06121212       0.00000000       0.00000000       6.04832602
2
Properties=species:S:1:pos:R:3:forces:R:3 energy=-7.332967357767183 pbc="F F F"
Ir       0.00000000       0.00000000       0.00000000       0.00000000       0.00000000      -3.26861000
Ir       0.00000000       0.00000000       2.12000000       0.00000000       0.00000000       3.26861000
2
Properties=species:S:1:pos:R:3:forces:R:3 energy=-7.456294982953648 pbc="F F F"
Ir       0.00000000       0.00000000       0.00000000       0.00000000       0.00000000      -1.00939512
Ir       0.00000000       0.00000000       2.17878788       0.00000000       0.00000000       1.00939512
2
Properties=species:S:1:pos:R:3:forces:R:3 energy=-7.460932176494115 pbc="F F F"
Ir       0.00000000       0.00000000       0.00000000       0.00000000       0.00000000       0.77569950
Ir       0.00000000       0.00000000       2.23757576       0.00000000       0.00000000      -0.77569950
2
Properties=species:S:1:pos:R:3:forces:R:3 energy=-7.373690167586337 pbc="F F F"
Ir       0.00000000       0.00000000       0.00000000       0.00000000       0.00000000       2.12223339
Ir       0.00000000       0.00000000       2.29636364       0.00000000       0.00000000      -2.12223339
2
Properties=species:S:1:pos:R:3:forces:R:3 energy=-7.21922924068679 pbc="F F F"
Ir       0.00000000       0.00000000       0.00000000       0.00000000       0.00000000       3.07028866
Ir       0.00000000       0.00000000       2.35515152       0.00000000       0.00000000      -3.07028866
2
Properties=species:S:1:pos:R:3:forces:R:3 energy=-7.019460537537616 pbc="F F F"
Ir       0.00000000       0.00000000       0.00000000       0.00000000       0.00000000       3.67385125
Ir       0.00000000       0.00000000       2.41393939       0.00000000       0.00000000      -3.67385125
2
Properties=species:S:1:pos:R:3:forces:R:3 energy=-6.792663475522088 pbc="F F F"
Ir       0.00000000       0.00000000       0.00000000       0.00000000       0.00000000       4.00266171
Ir       0.00000000       0.00000000       2.47272727       0.00000000       0.00000000      -4.00266171
2
Properties=species:S:1:pos:R:3:forces:R:3 energy=-6.55266345478376 pbc="F F F"
Ir       0.00000000       0.00000000       0.00000000       0.00000000       0.00000000       4.13658905
Ir       0.00000000       0.00000000       2.53151515       0.00000000       0.00000000      -4.13658905
2
Properties=species:S:1:pos:R:3:forces:R:3 energy=-6.30857226348323 pbc="F F F"
Ir       0.00000000       0.00000000       0.00000000       0.00000000       0.00000000       4.15413952
Ir       0.00000000       0.00000000       2.59030303       0.00000000       0.00000000      -4.15413952
2
Properties=species:S:1:pos:R:3:forces:R:3 energy=-6.065237182977901 pbc="F F F"
Ir       0.00000000       0.00000000       0.00000000       0.00000000       0.00000000       4.11974001
Ir       0.00000000       0.00000000       2.64909091       0.00000000       0.00000000      -4.11974001
2
Properties=species:S:1:pos:R:3:forces:R:3 energy=-5.824460594336862 pbc="F F F"
Ir       0.00000000       0.00000000       0.00000000       0.00000000       0.00000000       4.07005453
Ir       0.00000000       0.00000000       2.70787879       0.00000000       0.00000000      -4.07005453
2
Properties=species:S:1:pos:R:3:forces:R:3 energy=-5.586996943301697 pbc="F F F"
Ir       0.00000000       0.00000000       0.00000000       0.00000000       0.00000000       4.00432873
Ir       0.00000000       0.00000000       2.76666667       0.00000000       0.00000000      -4.00432873
2
Properties=species:S:1:pos:R:3:forces:R:3 energy=-5.354360263028049 pbc="F F F"
Ir       0.00000000       0.00000000       0.00000000       0.00000000       0.00000000       3.90274620
Ir       0.00000000       0.00000000       2.82545455       0.00000000       0.00000000      -3.90274620
2
Properties=species:S:1:pos:R:3:forces:R:3 energy=-5.129057244785909 pbc="F F F"
Ir       0.00000000       0.00000000       0.00000000       0.00000000       0.00000000       3.75420809
Ir       0.00000000       0.00000000       2.88424242       0.00000000       0.00000000      -3.75420809
2
Properties=species:S:1:pos:R:3:forces:R:3 energy=-4.9138547513071895 pbc="F F F"
Ir       0.00000000       0.00000000       0.00000000       0.00000000       0.00000000       3.55999875
Ir       0.00000000       0.00000000       2.94303030       0.00000000       0.00000000      -3.55999875
2
Properties=species:S:1:pos:R:3:forces:R:3 energy=-4.711236272384824 pbc="F F F"
Ir       0.00000000       0.00000000       0.00000000       0.00000000       0.00000000       3.32770610
Ir       0.00000000       0.00000000       3.00181818       0.00000000       0.00000000      -3.32770610
2
Properties=species:S:1:pos:R:3:forces:R:3 energy=-4.523139977068862 pbc="F F F"
Ir       0.00000000       0.00000000       0.00000000       0.00000000       0.00000000       3.06778932
Ir       0.00000000       0.00000000       3.06060606       0.00000000       0.00000000      -3.06778932
2
Properties=species:S:1:pos:R:3:forces:R:3 energy=-4.350847754802256 pbc="F F F"
Ir       0.00000000       0.00000000       0.00000000       0.00000000       0.00000000       2.79212093
Ir       0.00000000       0.00000000       3.11939394       0.00000000       0.00000000      -2.79212093
2
Properties=species:S:1:pos:R:3:forces:R:3 energy=-4.194921927659523 pbc="F F F"
Ir       0.00000000       0.00000000       0.00000000       0.00000000       0.00000000       2.51295114
Ir       0.00000000       0.00000000       3.17818182       0.00000000       0.00000000      -2.51295114
2
Properties=species:S:1:pos:R:3:forces:R:3 energy=-4.055231375085472 pbc="F F F"
Ir       0.00000000       0.00000000       0.00000000       0.00000000       0.00000000       2.24155831
Ir       0.00000000       0.00000000       3.23696970       0.00000000       0.00000000      -2.24155831
2
Properties=species:S:1:pos:R:3:forces:R:3 energy=-3.931041384037773 pbc="F F F"
Ir       0.00000000       0.00000000       0.00000000       0.00000000       0.00000000       1.98679173
Ir       0.00000000       0.00000000       3.29575758       0.00000000       0.00000000      -1.98679173
2
Properties=species:S:1:pos:R:3:forces:R:3 energy=-3.8211966901074925 pbc="F F F"
Ir       0.00000000       0.00000000       0.00000000       0.00000000       0.00000000       1.75414670
Ir       0.00000000       0.00000000       3.35454545       0.00000000       0.00000000      -1.75414670
2
Properties=species:S:1:pos:R:3:forces:R:3 energy=-3.7243178140510325 pbc="F F F"
Ir       0.00000000       0.00000000       0.00000000       0.00000000       0.00000000       1.54582179
Ir       0.00000000       0.00000000       3.41333333       0.00000000       0.00000000      -1.54582179
2
Properties=species:S:1:pos:R:3:forces:R:3 energy=-3.638973453430015 pbc="F F F"
Ir       0.00000000       0.00000000       0.00000000       0.00000000       0.00000000       1.36154461
Ir       0.00000000       0.00000000       3.47212121       0.00000000       0.00000000      -1.36154461
2
Properties=species:S:1:pos:R:3:forces:R:3 energy=-3.5637950375708463 pbc="F F F"
Ir       0.00000000       0.00000000       0.00000000       0.00000000       0.00000000       1.19965148
Ir       0.00000000       0.00000000       3.53090909       0.00000000       0.00000000      -1.19965148
2
Properties=species:S:1:pos:R:3:forces:R:3 energy=-3.4975276984554915 pbc="F F F"
Ir       0.00000000       0.00000000       0.00000000       0.00000000       0.00000000       1.05796647
Ir       0.00000000       0.00000000       3.58969697       0.00000000       0.00000000      -1.05796647
2
Properties=species:S:1:pos:R:3:forces:R:3 energy=-3.439049578626641 pbc="F F F"
Ir       0.00000000       0.00000000       0.00000000       0.00000000       0.00000000       0.93433392
Ir       0.00000000       0.00000000       3.64848485       0.00000000       0.00000000      -0.93433392
2
Properties=species:S:1:pos:R:3:forces:R:3 energy=-3.3873578698615927 pbc="F F F"
Ir       0.00000000       0.00000000       0.00000000       0.00000000       0.00000000       0.82679605
Ir       0.00000000       0.00000000       3.70727273       0.00000000       0.00000000      -0.82679605
2
Properties=species:S:1:pos:R:3:forces:R:3 energy=-3.341556856565335 pbc="F F F"
Ir       0.00000000       0.00000000       0.00000000       0.00000000       0.00000000       0.73360044
Ir       0.00000000       0.00000000       3.76606061       0.00000000       0.00000000      -0.73360044
2
Properties=species:S:1:pos:R:3:forces:R:3 energy=-3.300854479707953 pbc="F F F"
Ir       0.00000000       0.00000000       0.00000000       0.00000000       0.00000000       0.65313709
Ir       0.00000000       0.00000000       3.82484848       0.00000000       0.00000000      -0.65313709
2
Properties=species:S:1:pos:R:3:forces:R:3 energy=-3.2645451508480825 pbc="F F F"
Ir       0.00000000       0.00000000       0.00000000       0.00000000       0.00000000       0.58384520
Ir       0.00000000       0.00000000       3.88363636       0.00000000       0.00000000      -0.58384520
2
Properties=species:S:1:pos:R:3:forces:R:3 energy=-3.232019200177053 pbc="F F F"
Ir       0.00000000       0.00000000       0.00000000       0.00000000       0.00000000       0.52419925
Ir       0.00000000       0.00000000       3.94242424       0.00000000       0.00000000      -0.52419925
2
Properties=species:S:1:pos:R:3:forces:R:3 energy=-3.202752980147986 pbc="F F F"
Ir       0.00000000       0.00000000       0.00000000       0.00000000       0.00000000       0.47270456
Ir       0.00000000       0.00000000       4.00121212       0.00000000       0.00000000      -0.47270456
2
Properties=species:S:1:pos:R:3:forces:R:3 energy=-3.1763092567817557 pbc="F F F"
Ir       0.00000000       0.00000000       0.00000000       0.00000000       0.00000000       0.42792904
Ir       0.00000000       0.00000000       4.06000000       0.00000000       0.00000000      -0.42792904
2
Properties=species:S:1:pos:R:3:forces:R:3 energy=-3.152333162886786 pbc="F F F"
Ir       0.00000000       0.00000000       0.00000000       0.00000000       0.00000000       0.38856006
Ir       0.00000000       0.00000000       4.11878788       0.00000000       0.00000000      -0.38856006
2
Properties=species:S:1:pos:R:3:forces:R:3 energy=-3.130540607415519 pbc="F F F"
Ir       0.00000000       0.00000000       0.00000000       0.00000000       0.00000000       0.35343584
Ir       0.00000000       0.00000000       4.17757576       0.00000000       0.00000000      -0.35343584
2
Properties=species:S:1:pos:R:3:forces:R:3 energy=-3.1107131007796807 pbc="F F F"
Ir       0.00000000       0.00000000       0.00000000       0.00000000       0.00000000       0.32158184
Ir       0.00000000       0.00000000       4.23636364       0.00000000       0.00000000      -0.32158184
2
Properties=species:S:1:pos:R:3:forces:R:3 energy=-3.0926812722900983 pbc="F F F"
Ir       0.00000000       0.00000000       0.00000000       0.00000000       0.00000000       0.29221904
Ir       0.00000000       0.00000000       4.29515152       0.00000000       0.00000000      -0.29221904
2
Properties=species:S:1:pos:R:3:forces:R:3 energy=-3.0763179528500877 pbc="F F F"
Ir       0.00000000       0.00000000       0.00000000       0.00000000       0.00000000       0.26477411
Ir       0.00000000       0.00000000       4.35393939       0.00000000       0.00000000      -0.26477411
2
Properties=species:S:1:pos:R:3:forces:R:3 energy=-3.061520774398917 pbc="F F F"
Ir       0.00000000       0.00000000       0.00000000       0.00000000       0.00000000       0.23886922
Ir       0.00000000       0.00000000       4.41272727       0.00000000       0.00000000      -0.23886922
2
Properties=species:S:1:pos:R:3:forces:R:3 energy=-3.048206075566881 pbc="F F F"
Ir       0.00000000       0.00000000       0.00000000       0.00000000       0.00000000       0.21430981
Ir       0.00000000       0.00000000       4.47151515       0.00000000       0.00000000      -0.21430981
2
Properties=species:S:1:pos:R:3:forces:R:3 energy=-3.0362971439691133 pbc="F F F"
Ir       0.00000000       0.00000000       0.00000000       0.00000000       0.00000000       0.19105658
Ir       0.00000000       0.00000000       4.53030303       0.00000000       0.00000000      -0.19105658
2
Properties=species:S:1:pos:R:3:forces:R:3 energy=-3.025715871555316 pbc="F F F"
Ir       0.00000000       0.00000000       0.00000000       0.00000000       0.00000000       0.16917352
Ir       0.00000000       0.00000000       4.58909091       0.00000000       0.00000000      -0.16917352
2
Properties=species:S:1:pos:R:3:forces:R:3 energy=-3.0163776622883995 pbc="F F F"
Ir       0.00000000       0.00000000       0.00000000       0.00000000       0.00000000       0.14877902
Ir       0.00000000       0.00000000       4.64787879       0.00000000       0.00000000      -0.14877902
2
Properties=species:S:1:pos:R:3:forces:R:3 energy=-3.0081914614868044 pbc="F F F"
Ir       0.00000000       0.00000000       0.00000000       0.00000000       0.00000000       0.12999304
Ir       0.00000000       0.00000000       4.70666667       0.00000000       0.00000000      -0.12999304
2
Properties=species:S:1:pos:R:3:forces:R:3 energy=-3.0010604742480553 pbc="F F F"
Ir       0.00000000       0.00000000       0.00000000       0.00000000       0.00000000       0.11290452
Ir       0.00000000       0.00000000       4.76545455       0.00000000       0.00000000      -0.11290452
2
Properties=species:S:1:pos:R:3:forces:R:3 energy=-2.994882048239346 pbc="F F F"
Ir       0.00000000       0.00000000       0.00000000       0.00000000       0.00000000       0.09756000
Ir       0.00000000       0.00000000       4.82424242       0.00000000       0.00000000      -0.09756000
2
Properties=species:S:1:pos:R:3:forces:R:3 energy=-2.9895550234918 pbc="F F F"
Ir       0.00000000       0.00000000       0.00000000       0.00000000       0.00000000       0.08399985
Ir       0.00000000       0.00000000       4.88303030       0.00000000       0.00000000      -0.08399985
2
Properties=species:S:1:pos:R:3:forces:R:3 energy=-2.984970091119178 pbc="F F F"
Ir       0.00000000       0.00000000       0.00000000       0.00000000       0.00000000       0.07228161
Ir       0.00000000       0.00000000       4.94181818       0.00000000       0.00000000      -0.07228161
2
Properties=species:S:1:pos:R:3:forces:R:3 energy=-2.981017419544587 pbc="F F F"
Ir       0.00000000       0.00000000       0.00000000       0.00000000       0.00000000       0.06253424
Ir       0.00000000       0.00000000       5.00060606       0.00000000       0.00000000      -0.06253424
2
Properties=species:S:1:pos:R:3:forces:R:3 energy=-2.9775754805054824 pbc="F F F"
Ir       0.00000000       0.00000000       0.00000000       0.00000000       0.00000000       0.05492141
Ir       0.00000000       0.00000000       5.05939394       0.00000000       0.00000000      -0.05492141
2
Properties=species:S:1:pos:R:3:forces:R:3 energy=-2.9745157350618756 pbc="F F F"
Ir       0.00000000       0.00000000       0.00000000       0.00000000       0.00000000       0.04956484
Ir       0.00000000       0.00000000       5.11818182       0.00000000       0.00000000      -0.04956484
2
Properties=species:S:1:pos:R:3:forces:R:3 energy=-2.97170505579599 pbc="F F F"
Ir       0.00000000       0.00000000       0.00000000       0.00000000       0.00000000       0.04639458
Ir       0.00000000       0.00000000       5.17696970       0.00000000       0.00000000      -0.04639458
2
Properties=species:S:1:pos:R:3:forces:R:3 energy=-2.969025591582058 pbc="F F F"
Ir       0.00000000       0.00000000       0.00000000       0.00000000       0.00000000       0.04501193
Ir       0.00000000       0.00000000       5.23575758       0.00000000       0.00000000      -0.04501193
2
Properties=species:S:1:pos:R:3:forces:R:3 energy=-2.966392328197799 pbc="F F F"
Ir       0.00000000       0.00000000       0.00000000       0.00000000       0.00000000       0.04466578
Ir       0.00000000       0.00000000       5.29454545       0.00000000       0.00000000      -0.04466578
2
Properties=species:S:1:pos:R:3:forces:R:3 energy=-2.9637711281089607 pbc="F F F"
Ir       0.00000000       0.00000000       0.00000000       0.00000000       0.00000000       0.04446539
Ir       0.00000000       0.00000000       5.35333333       0.00000000       0.00000000      -0.04446539
2
Properties=species:S:1:pos:R:3:forces:R:3 energy=-2.961173936755156 pbc="F F F"
Ir       0.00000000       0.00000000       0.00000000       0.00000000       0.00000000       0.04380873
Ir       0.00000000       0.00000000       5.41212121       0.00000000       0.00000000      -0.04380873
2
Properties=species:S:1:pos:R:3:forces:R:3 energy=-2.958632588184388 pbc="F F F"
Ir       0.00000000       0.00000000       0.00000000       0.00000000       0.00000000       0.04251223
Ir       0.00000000       0.00000000       5.47090909       0.00000000       0.00000000      -0.04251223
2
Properties=species:S:1:pos:R:3:forces:R:3 energy=-2.956194122212662 pbc="F F F"
Ir       0.00000000       0.00000000       0.00000000       0.00000000       0.00000000       0.04023637
Ir       0.00000000       0.00000000       5.52969697       0.00000000       0.00000000      -0.04023637
2
Properties=species:S:1:pos:R:3:forces:R:3 energy=-2.9539322586100973 pbc="F F F"
Ir       0.00000000       0.00000000       0.00000000       0.00000000       0.00000000       0.03640044
Ir       0.00000000       0.00000000       5.58848485       0.00000000       0.00000000      -0.03640044
2
Properties=species:S:1:pos:R:3:forces:R:3 energy=-2.9519588728709394 pbc="F F F"
Ir       0.00000000       0.00000000       0.00000000       0.00000000       0.00000000       0.03036469
Ir       0.00000000       0.00000000       5.64727273       0.00000000       0.00000000      -0.03036469
2
Properties=species:S:1:pos:R:3:forces:R:3 energy=-2.950392084553921 pbc="F F F"
Ir       0.00000000       0.00000000       0.00000000       0.00000000       0.00000000       0.02298506
Ir       0.00000000       0.00000000       5.70606061       0.00000000       0.00000000      -0.02298506
2
Properties=species:S:1:pos:R:3:forces:R:3 energy=-2.9491968217771047 pbc="F F F"
Ir       0.00000000       0.00000000       0.00000000       0.00000000       0.00000000       0.01847561
Ir       0.00000000       0.00000000       5.76484848       0.00000000       0.00000000      -0.01847561
2
Properties=species:S:1:pos:R:3:forces:R:3 energy=-2.9481352388649418 pbc="F F F"
Ir       0.00000000       0.00000000       0.00000000       0.00000000       0.00000000       0.01792344
Ir       0.00000000       0.00000000       5.82363636       0.00000000       0.00000000      -0.01792344
2
Properties=species:S:1:pos:R:3:forces:R:3 energy=-2.9471229335043385 pbc="F F F"
Ir       0.00000000       0.00000000       0.00000000       0.00000000       0.00000000       0.01599952
Ir       0.00000000       0.00000000       5.88242424       0.00000000       0.00000000      -0.01599952
2
Properties=species:S:1:pos:R:3:forces:R:3 energy=-2.9462998172512704 pbc="F F F"
Ir       0.00000000       0.00000000       0.00000000       0.00000000       0.00000000       0.01193552
Ir       0.00000000       0.00000000       5.94121212       0.00000000       0.00000000      -0.01193552
2
Properties=species:S:1:pos:R:3:forces:R:3 energy=-2.9456820172776923 pbc="F F F"
Ir       0.00000000       0.00000000       0.00000000       0.00000000       0.00000000       0.00964539
Ir       0.00000000       0.00000000       6.00000000       0.00000000       0.00000000      -0.00964539
