2
Properties=species:S:1:pos:R:3:forces:R:3 energy=5444.465418789946 pbc="F F F"
Kr       0.00000000       0.00000000       0.00000000       0.00000000       0.00000000  -87403.44531250
Kr       0.00000000       0.00000000       0.18000000       0.00000000       0.00000000   87403.44531250
2
Properties=species:S:1:pos:R:3:forces:R:3 energy=2299.7320203556137 pbc="F F F"
Kr       0.00000000       0.00000000       0.00000000       0.00000000       0.00000000  -30998.64843750
Kr       0.00000000       0.00000000       0.23878788       0.00000000       0.00000000   30998.64843750
2
Properties=species:S:1:pos:R:3:forces:R:3 energy=1096.7703504369065 pbc="F F F"
Kr       0.00000000       0.00000000       0.00000000       0.00000000       0.00000000  -12950.84765625
Kr       0.00000000       0.00000000       0.29757576       0.00000000       0.00000000   12950.84765625
2
Properties=species:S:1:pos:R:3:forces:R:3 energy=569.5077161658983 pbc="F F F"
Kr       0.00000000       0.00000000       0.00000000       0.00000000       0.00000000   -5992.82617188
Kr       0.00000000       0.00000000       0.35636364       0.00000000       0.00000000    5992.82617188
2
Properties=species:S:1:pos:R:3:forces:R:3 energy=317.70553111680806 pbc="F F F"
Kr       0.00000000       0.00000000       0.00000000       0.00000000       0.00000000   -2964.60595703
Kr       0.00000000       0.00000000       0.41515152       0.00000000       0.00000000    2964.60595703
2
Properties=species:S:1:pos:R:3:forces:R:3 energy=190.44056227324813 pbc="F F F"
Kr       0.00000000       0.00000000       0.00000000       0.00000000       0.00000000   -1534.21875000
Kr       0.00000000       0.00000000       0.47393939       0.00000000       0.00000000    1534.21875000
2
Properties=species:S:1:pos:R:3:forces:R:3 energy=123.59437091134764 pbc="F F F"
Kr       0.00000000       0.00000000       0.00000000       0.00000000       0.00000000    -819.38177490
Kr       0.00000000       0.00000000       0.53272727       0.00000000       0.00000000     819.38177490
2
Properties=species:S:1:pos:R:3:forces:R:3 energy=87.42093959722663 pbc="F F F"
Kr       0.00000000       0.00000000       0.00000000       0.00000000       0.00000000    -451.60076904
Kr       0.00000000       0.00000000       0.59151515       0.00000000       0.00000000     451.60076904
2
Properties=species:S:1:pos:R:3:forces:R:3 energy=67.0731614162983 pbc="F F F"
Kr       0.00000000       0.00000000       0.00000000       0.00000000       0.00000000    -258.72229004
Kr       0.00000000       0.00000000       0.65030303       0.00000000       0.00000000     258.72229004
2
Properties=species:S:1:pos:R:3:forces:R:3 energy=55.65325120080201 pbc="F F F"
Kr       0.00000000       0.00000000       0.00000000       0.00000000       0.00000000    -142.53286743
Kr       0.00000000       0.00000000       0.70909091       0.00000000       0.00000000     142.53286743
2
Properties=species:S:1:pos:R:3:forces:R:3 energy=48.91622531248808 pbc="F F F"
Kr       0.00000000       0.00000000       0.00000000       0.00000000       0.00000000     -93.42106628
Kr       0.00000000       0.00000000       0.76787879       0.00000000       0.00000000      93.42106628
2
Properties=species:S:1:pos:R:3:forces:R:3 energy=44.2783588201201 pbc="F F F"
Kr       0.00000000       0.00000000       0.00000000       0.00000000       0.00000000     -65.83701324
Kr       0.00000000       0.00000000       0.82666667       0.00000000       0.00000000      65.83701324
2
Properties=species:S:1:pos:R:3:forces:R:3 energy=41.0258646986936 pbc="F F F"
Kr       0.00000000       0.00000000       0.00000000       0.00000000       0.00000000     -46.11280823
Kr       0.00000000       0.00000000       0.88545455       0.00000000       0.00000000      46.11280823
2
Properties=species:S:1:pos:R:3:forces:R:3 energy=38.68964969514679 pbc="F F F"
Kr       0.00000000       0.00000000       0.00000000       0.00000000       0.00000000     -35.00894928
Kr       0.00000000       0.00000000       0.94424242       0.00000000       0.00000000      35.00894928
2
Properties=species:S:1:pos:R:3:forces:R:3 energy=36.67840910962247 pbc="F F F"
Kr       0.00000000       0.00000000       0.00000000       0.00000000       0.00000000     -35.67020035
Kr       0.00000000       0.00000000       1.00303030       0.00000000       0.00000000      35.67020035
2
Properties=species:S:1:pos:R:3:forces:R:3 energy=34.261224171884905 pbc="F F F"
Kr       0.00000000       0.00000000       0.00000000       0.00000000       0.00000000     -47.66274261
Kr       0.00000000       0.00000000       1.06181818       0.00000000       0.00000000      47.66274261
2
Properties=species:S:1:pos:R:3:forces:R:3 energy=31.08134641187525 pbc="F F F"
Kr       0.00000000       0.00000000       0.00000000       0.00000000       0.00000000     -59.66680145
Kr       0.00000000       0.00000000       1.12060606       0.00000000       0.00000000      59.66680145
2
Properties=species:S:1:pos:R:3:forces:R:3 energy=27.37711635945658 pbc="F F F"
Kr       0.00000000       0.00000000       0.00000000       0.00000000       0.00000000     -65.24809265
Kr       0.00000000       0.00000000       1.17939394       0.00000000       0.00000000      65.24809265
2
Properties=species:S:1:pos:R:3:forces:R:3 energy=23.50695551771053 pbc="F F F"
Kr       0.00000000       0.00000000       0.00000000       0.00000000       0.00000000     -65.87196350
Kr       0.00000000       0.00000000       1.23818182       0.00000000       0.00000000      65.87196350
2
Properties=species:S:1:pos:R:3:forces:R:3 energy=19.68150214514584 pbc="F F F"
Kr       0.00000000       0.00000000       0.00000000       0.00000000       0.00000000     -63.85204697
Kr       0.00000000       0.00000000       1.29696970       0.00000000       0.00000000      63.85204697
2
Properties=species:S:1:pos:R:3:forces:R:3 energy=16.063102359243985 pbc="F F F"
Kr       0.00000000       0.00000000       0.00000000       0.00000000       0.00000000     -58.59881592
Kr       0.00000000       0.00000000       1.35575758       0.00000000       0.00000000      58.59881592
2
Properties=species:S:1:pos:R:3:forces:R:3 energy=12.862126512058525 pbc="F F F"
Kr       0.00000000       0.00000000       0.00000000       0.00000000       0.00000000     -49.88812256
Kr       0.00000000       0.00000000       1.41454545       0.00000000       0.00000000      49.88812256
2
Properties=species:S:1:pos:R:3:forces:R:3 energy=10.213563708329536 pbc="F F F"
Kr       0.00000000       0.00000000       0.00000000       0.00000000       0.00000000     -40.31026840
Kr       0.00000000       0.00000000       1.47333333       0.00000000       0.00000000      40.31026840
2
Properties=species:S:1:pos:R:3:forces:R:3 energy=8.100016444473653 pbc="F F F"
Kr       0.00000000       0.00000000       0.00000000       0.00000000       0.00000000     -31.82265282
Kr       0.00000000       0.00000000       1.53212121       0.00000000       0.00000000      31.82265282
2
Properties=species:S:1:pos:R:3:forces:R:3 energy=6.444603253114836 pbc="F F F"
Kr       0.00000000       0.00000000       0.00000000       0.00000000       0.00000000     -24.73190689
Kr       0.00000000       0.00000000       1.59090909       0.00000000       0.00000000      24.73190689
2
Properties=species:S:1:pos:R:3:forces:R:3 energy=5.1643530428860736 pbc="F F F"
Kr       0.00000000       0.00000000       0.00000000       0.00000000       0.00000000     -19.05270958
Kr       0.00000000       0.00000000       1.64969697       0.00000000       0.00000000      19.05270958
2
Properties=species:S:1:pos:R:3:forces:R:3 energy=4.179216850217913 pbc="F F F"
Kr       0.00000000       0.00000000       0.00000000       0.00000000       0.00000000     -14.65786934
Kr       0.00000000       0.00000000       1.70848485       0.00000000       0.00000000      14.65786934
2
Properties=species:S:1:pos:R:3:forces:R:3 energy=3.420510466971733 pbc="F F F"
Kr       0.00000000       0.00000000       0.00000000       0.00000000       0.00000000     -11.30691624
Kr       0.00000000       0.00000000       1.76727273       0.00000000       0.00000000      11.30691624
2
Properties=species:S:1:pos:R:3:forces:R:3 energy=2.833970744044358 pbc="F F F"
Kr       0.00000000       0.00000000       0.00000000       0.00000000       0.00000000      -8.76534462
Kr       0.00000000       0.00000000       1.82606061       0.00000000       0.00000000       8.76534462
2
Properties=species:S:1:pos:R:3:forces:R:3 energy=2.377706161101214 pbc="F F F"
Kr       0.00000000       0.00000000       0.00000000       0.00000000       0.00000000      -6.84811640
Kr       0.00000000       0.00000000       1.88484848       0.00000000       0.00000000       6.84811640
2
Properties=species:S:1:pos:R:3:forces:R:3 energy=2.0194051644266935 pbc="F F F"
Kr       0.00000000       0.00000000       0.00000000       0.00000000       0.00000000      -5.41110277
Kr       0.00000000       0.00000000       1.94363636       0.00000000       0.00000000       5.41110277
2
Properties=species:S:1:pos:R:3:forces:R:3 energy=1.7343761562957614 pbc="F F F"
Kr       0.00000000       0.00000000       0.00000000       0.00000000       0.00000000      -4.33803749
Kr       0.00000000       0.00000000       2.00242424       0.00000000       0.00000000       4.33803749
2
Properties=species:S:1:pos:R:3:forces:R:3 energy=1.5040595024470282 pbc="F F F"
Kr       0.00000000       0.00000000       0.00000000       0.00000000       0.00000000      -3.53611517
Kr       0.00000000       0.00000000       2.06121212       0.00000000       0.00000000       3.53611517
2
Properties=species:S:1:pos:R:3:forces:R:3 energy=1.3146996946524852 pbc="F F F"
Kr       0.00000000       0.00000000       0.00000000       0.00000000       0.00000000      -2.93464065
Kr       0.00000000       0.00000000       2.12000000       0.00000000       0.00000000       2.93464065
2
Properties=species:S:1:pos:R:3:forces:R:3 energy=1.1561142510417386 pbc="F F F"
Kr       0.00000000       0.00000000       0.00000000       0.00000000       0.00000000      -2.48179555
Kr       0.00000000       0.00000000       2.17878788       0.00000000       0.00000000       2.48179555
2
Properties=species:S:1:pos:R:3:forces:R:3 energy=1.020734561326105 pbc="F F F"
Kr       0.00000000       0.00000000       0.00000000       0.00000000       0.00000000      -2.13978767
Kr       0.00000000       0.00000000       2.23757576       0.00000000       0.00000000       2.13978767
2
Properties=species:S:1:pos:R:3:forces:R:3 energy=0.9029140810292805 pbc="F F F"
Kr       0.00000000       0.00000000       0.00000000       0.00000000       0.00000000      -1.88026547
Kr       0.00000000       0.00000000       2.29636364       0.00000000       0.00000000       1.88026547
2
Properties=species:S:1:pos:R:3:forces:R:3 energy=0.7984808978419693 pbc="F F F"
Kr       0.00000000       0.00000000       0.00000000       0.00000000       0.00000000      -1.68106925
Kr       0.00000000       0.00000000       2.35515152       0.00000000       0.00000000       1.68106925
2
Properties=species:S:1:pos:R:3:forces:R:3 energy=0.7044300150156628 pbc="F F F"
Kr       0.00000000       0.00000000       0.00000000       0.00000000       0.00000000      -1.52443445
Kr       0.00000000       0.00000000       2.41393939       0.00000000       0.00000000       1.52443445
2
Properties=species:S:1:pos:R:3:forces:R:3 energy=0.6186897417528326 pbc="F F F"
Kr       0.00000000       0.00000000       0.00000000       0.00000000       0.00000000      -1.39624786
Kr       0.00000000       0.00000000       2.47272727       0.00000000       0.00000000       1.39624786
2
Properties=species:S:1:pos:R:3:forces:R:3 energy=0.5399230087511386 pbc="F F F"
Kr       0.00000000       0.00000000       0.00000000       0.00000000       0.00000000      -1.28558373
Kr       0.00000000       0.00000000       2.53151515       0.00000000       0.00000000       1.28558373
2
Properties=species:S:1:pos:R:3:forces:R:3 energy=0.46734987824257634 pbc="F F F"
Kr       0.00000000       0.00000000       0.00000000       0.00000000       0.00000000      -1.18451416
Kr       0.00000000       0.00000000       2.59030303       0.00000000       0.00000000       1.18451416
2
Properties=species:S:1:pos:R:3:forces:R:3 energy=0.4005671594555553 pbc="F F F"
Kr       0.00000000       0.00000000       0.00000000       0.00000000       0.00000000      -1.08792269
Kr       0.00000000       0.00000000       2.64909091       0.00000000       0.00000000       1.08792269
2
Properties=species:S:1:pos:R:3:forces:R:3 energy=0.33940084781329044 pbc="F F F"
Kr       0.00000000       0.00000000       0.00000000       0.00000000       0.00000000      -0.99320966
Kr       0.00000000       0.00000000       2.70787879       0.00000000       0.00000000       0.99320966
2
Properties=species:S:1:pos:R:3:forces:R:3 energy=0.28376500589357556 pbc="F F F"
Kr       0.00000000       0.00000000       0.00000000       0.00000000       0.00000000      -0.89981163
Kr       0.00000000       0.00000000       2.76666667       0.00000000       0.00000000       0.89981163
2
Properties=species:S:1:pos:R:3:forces:R:3 energy=0.23356312536924706 pbc="F F F"
Kr       0.00000000       0.00000000       0.00000000       0.00000000       0.00000000      -0.80855310
Kr       0.00000000       0.00000000       2.82545455       0.00000000       0.00000000       0.80855310
2
Properties=species:S:1:pos:R:3:forces:R:3 energy=0.18862756176947215 pbc="F F F"
Kr       0.00000000       0.00000000       0.00000000       0.00000000       0.00000000      -0.72092265
Kr       0.00000000       0.00000000       2.88424242       0.00000000       0.00000000       0.72092265
2
Properties=species:S:1:pos:R:3:forces:R:3 energy=0.14869901781065725 pbc="F F F"
Kr       0.00000000       0.00000000       0.00000000       0.00000000       0.00000000      -0.63842821
Kr       0.00000000       0.00000000       2.94303030       0.00000000       0.00000000       0.63842821
2
Properties=species:S:1:pos:R:3:forces:R:3 energy=0.11344149090702219 pbc="F F F"
Kr       0.00000000       0.00000000       0.00000000       0.00000000       0.00000000      -0.56216788
Kr       0.00000000       0.00000000       3.00181818       0.00000000       0.00000000       0.56216788
2
Properties=species:S:1:pos:R:3:forces:R:3 energy=0.08246948099202767 pbc="F F F"
Kr       0.00000000       0.00000000       0.00000000       0.00000000       0.00000000      -0.49265996
Kr       0.00000000       0.00000000       3.06060606       0.00000000       0.00000000       0.49265996
2
Properties=species:S:1:pos:R:3:forces:R:3 energy=0.055384324009111155 pbc="F F F"
Kr       0.00000000       0.00000000       0.00000000       0.00000000       0.00000000      -0.42989448
Kr       0.00000000       0.00000000       3.11939394       0.00000000       0.00000000       0.42989448
2
Properties=species:S:1:pos:R:3:forces:R:3 energy=0.03179909562781097 pbc="F F F"
Kr       0.00000000       0.00000000       0.00000000       0.00000000       0.00000000      -0.37350070
Kr       0.00000000       0.00000000       3.17818182       0.00000000       0.00000000       0.37350070
2
Properties=species:S:1:pos:R:3:forces:R:3 energy=0.011355594638742337 pbc="F F F"
Kr       0.00000000       0.00000000       0.00000000       0.00000000       0.00000000      -0.32292658
Kr       0.00000000       0.00000000       3.23696970       0.00000000       0.00000000       0.32292658
2
Properties=species:S:1:pos:R:3:forces:R:3 energy=-0.006271456794845098 pbc="F F F"
Kr       0.00000000       0.00000000       0.00000000       0.00000000       0.00000000      -0.27757949
Kr       0.00000000       0.00000000       3.29575758       0.00000000       0.00000000       0.27757949
2
Properties=species:S:1:pos:R:3:forces:R:3 energy=-0.021372838480715146 pbc="F F F"
Kr       0.00000000       0.00000000       0.00000000       0.00000000       0.00000000      -0.23691867
Kr       0.00000000       0.00000000       3.35454545       0.00000000       0.00000000       0.23691867
2
Properties=species:S:1:pos:R:3:forces:R:3 energy=-0.03421019382833413 pbc="F F F"
Kr       0.00000000       0.00000000       0.00000000       0.00000000       0.00000000      -0.20048885
Kr       0.00000000       0.00000000       3.41333333       0.00000000       0.00000000       0.20048885
2
Properties=species:S:1:pos:R:3:forces:R:3 energy=-0.04502129517948031 pbc="F F F"
Kr       0.00000000       0.00000000       0.00000000       0.00000000       0.00000000      -0.16792662
Kr       0.00000000       0.00000000       3.47212121       0.00000000       0.00000000       0.16792662
2
Properties=species:S:1:pos:R:3:forces:R:3 energy=-0.05402442008639502 pbc="F F F"
Kr       0.00000000       0.00000000       0.00000000       0.00000000       0.00000000      -0.13894507
Kr       0.00000000       0.00000000       3.53090909       0.00000000       0.00000000       0.13894507
2
Properties=species:S:1:pos:R:3:forces:R:3 energy=-0.06142328471107414 pbc="F F F"
Kr       0.00000000       0.00000000       0.00000000       0.00000000       0.00000000      -0.11330569
Kr       0.00000000       0.00000000       3.58969697       0.00000000       0.00000000       0.11330569
2
Properties=species:S:1:pos:R:3:forces:R:3 energy=-0.06740787304307908 pbc="F F F"
Kr       0.00000000       0.00000000       0.00000000       0.00000000       0.00000000      -0.09079976
Kr       0.00000000       0.00000000       3.64848485       0.00000000       0.00000000       0.09079976
2
Properties=species:S:1:pos:R:3:forces:R:3 energy=-0.07215656049199363 pbc="F F F"
Kr       0.00000000       0.00000000       0.00000000       0.00000000       0.00000000      -0.07122660
Kr       0.00000000       0.00000000       3.70727273       0.00000000       0.00000000       0.07122660
2
Properties=species:S:1:pos:R:3:forces:R:3 energy=-0.07583591061584627 pbc="F F F"
Kr       0.00000000       0.00000000       0.00000000       0.00000000       0.00000000      -0.05438147
Kr       0.00000000       0.00000000       3.76606061       0.00000000       0.00000000       0.05438147
2
Properties=species:S:1:pos:R:3:forces:R:3 energy=-0.07859991179057244 pbc="F F F"
Kr       0.00000000       0.00000000       0.00000000       0.00000000       0.00000000      -0.04005523
Kr       0.00000000       0.00000000       3.82484848       0.00000000       0.00000000       0.04005523
2
Properties=species:S:1:pos:R:3:forces:R:3 energy=-0.08059052961489926 pbc="F F F"
Kr       0.00000000       0.00000000       0.00000000       0.00000000       0.00000000      -0.02803113
Kr       0.00000000       0.00000000       3.88363636       0.00000000       0.00000000       0.02803113
2
Properties=species:S:1:pos:R:3:forces:R:3 energy=-0.08193657624497822 pbc="F F F"
Kr       0.00000000       0.00000000       0.00000000       0.00000000       0.00000000      -0.01809240
Kr       0.00000000       0.00000000       3.94242424       0.00000000       0.00000000       0.01809240
2
Properties=species:S:1:pos:R:3:forces:R:3 energy=-0.08275433498670966 pbc="F F F"
Kr       0.00000000       0.00000000       0.00000000       0.00000000       0.00000000      -0.01002310
Kr       0.00000000       0.00000000       4.00121212       0.00000000       0.00000000       0.01002310
2
Properties=species:S:1:pos:R:3:forces:R:3 energy=-0.08314752477722995 pbc="F F F"
Kr       0.00000000       0.00000000       0.00000000       0.00000000       0.00000000      -0.00361233
Kr       0.00000000       0.00000000       4.06000000       0.00000000       0.00000000       0.00361233
2
Properties=species:S:1:pos:R:3:forces:R:3 energy=-0.08320757562639092 pbc="F F F"
Kr       0.00000000       0.00000000       0.00000000       0.00000000       0.00000000       0.00134365
Kr       0.00000000       0.00000000       4.11878788       0.00000000       0.00000000      -0.00134365
2
Properties=species:S:1:pos:R:3:forces:R:3 energy=-0.08301416969529479 pbc="F F F"
Kr       0.00000000       0.00000000       0.00000000       0.00000000       0.00000000       0.00504275
Kr       0.00000000       0.00000000       4.17757576       0.00000000       0.00000000      -0.00504275
2
Properties=species:S:1:pos:R:3:forces:R:3 energy=-0.0826355850229368 pbc="F F F"
Kr       0.00000000       0.00000000       0.00000000       0.00000000       0.00000000       0.00767494
Kr       0.00000000       0.00000000       4.23636364       0.00000000       0.00000000      -0.00767494
2
Properties=species:S:1:pos:R:3:forces:R:3 energy=-0.08212912103224736 pbc="F F F"
Kr       0.00000000       0.00000000       0.00000000       0.00000000       0.00000000       0.00942266
Kr       0.00000000       0.00000000       4.29515152       0.00000000       0.00000000      -0.00942266
2
Properties=species:S:1:pos:R:3:forces:R:3 energy=-0.0815416338569588 pbc="F F F"
Kr       0.00000000       0.00000000       0.00000000       0.00000000       0.00000000       0.01045859
Kr       0.00000000       0.00000000       4.35393939       0.00000000       0.00000000      -0.01045859
2
Properties=species:S:1:pos:R:3:forces:R:3 energy=-0.0809102135834769 pbc="F F F"
Kr       0.00000000       0.00000000       0.00000000       0.00000000       0.00000000       0.01094380
Kr       0.00000000       0.00000000       4.41272727       0.00000000       0.00000000      -0.01094380
2
Properties=species:S:1:pos:R:3:forces:R:3 energy=-0.08026280640086862 pbc="F F F"
Kr       0.00000000       0.00000000       0.00000000       0.00000000       0.00000000       0.01102498
Kr       0.00000000       0.00000000       4.47151515       0.00000000       0.00000000      -0.01102498
2
Properties=species:S:1:pos:R:3:forces:R:3 energy=-0.07961928971434065 pbc="F F F"
Kr       0.00000000       0.00000000       0.00000000       0.00000000       0.00000000       0.01083330
Kr       0.00000000       0.00000000       4.53030303       0.00000000       0.00000000      -0.01083330
2
Properties=species:S:1:pos:R:3:forces:R:3 energy=-0.07899216199641403 pbc="F F F"
Kr       0.00000000       0.00000000       0.00000000       0.00000000       0.00000000       0.01048380
Kr       0.00000000       0.00000000       4.58909091       0.00000000       0.00000000      -0.01048380
2
Properties=species:S:1:pos:R:3:forces:R:3 energy=-0.07838778952475171 pbc="F F F"
Kr       0.00000000       0.00000000       0.00000000       0.00000000       0.00000000       0.01007546
Kr       0.00000000       0.00000000       4.64787879       0.00000000       0.00000000      -0.01007546
2
Properties=species:S:1:pos:R:3:forces:R:3 energy=-0.07780707153671756 pbc="F F F"
Kr       0.00000000       0.00000000       0.00000000       0.00000000       0.00000000       0.00969089
Kr       0.00000000       0.00000000       4.70666667       0.00000000       0.00000000      -0.00969089
2
Properties=species:S:1:pos:R:3:forces:R:3 energy=-0.07724660278094472 pbc="F F F"
Kr       0.00000000       0.00000000       0.00000000       0.00000000       0.00000000       0.00939475
Kr       0.00000000       0.00000000       4.76545455       0.00000000       0.00000000      -0.00939475
2
Properties=species:S:1:pos:R:3:forces:R:3 energy=-0.07669992597583869 pbc="F F F"
Kr       0.00000000       0.00000000       0.00000000       0.00000000       0.00000000       0.00922723
Kr       0.00000000       0.00000000       4.82424242       0.00000000       0.00000000      -0.00922723
2
Properties=species:S:1:pos:R:3:forces:R:3 energy=-0.07615903409701777 pbc="F F F"
Kr       0.00000000       0.00000000       0.00000000       0.00000000       0.00000000       0.00919457
Kr       0.00000000       0.00000000       4.88303030       0.00000000       0.00000000      -0.00919457
2
Properties=species:S:1:pos:R:3:forces:R:3 energy=-0.07561690062588493 pbc="F F F"
Kr       0.00000000       0.00000000       0.00000000       0.00000000       0.00000000       0.00925989
Kr       0.00000000       0.00000000       4.94181818       0.00000000       0.00000000      -0.00925989
2
Properties=species:S:1:pos:R:3:forces:R:3 energy=-0.07507001984363776 pbc="F F F"
Kr       0.00000000       0.00000000       0.00000000       0.00000000       0.00000000       0.00933872
Kr       0.00000000       0.00000000       5.00060606       0.00000000       0.00000000      -0.00933872
2
Properties=species:S:1:pos:R:3:forces:R:3 energy=-0.07452098398220385 pbc="F F F"
Kr       0.00000000       0.00000000       0.00000000       0.00000000       0.00000000       0.00931197
Kr       0.00000000       0.00000000       5.05939394       0.00000000       0.00000000      -0.00931197
2
Properties=species:S:1:pos:R:3:forces:R:3 energy=-0.07397952979632716 pbc="F F F"
Kr       0.00000000       0.00000000       0.00000000       0.00000000       0.00000000       0.00906421
Kr       0.00000000       0.00000000       5.11818182       0.00000000       0.00000000      -0.00906421
2
Properties=species:S:1:pos:R:3:forces:R:3 energy=-0.07346067549144832 pbc="F F F"
Kr       0.00000000       0.00000000       0.00000000       0.00000000       0.00000000       0.00854347
Kr       0.00000000       0.00000000       5.17696970       0.00000000       0.00000000      -0.00854347
2
Properties=species:S:1:pos:R:3:forces:R:3 energy=-0.07297904756005849 pbc="F F F"
Kr       0.00000000       0.00000000       0.00000000       0.00000000       0.00000000       0.00782263
Kr       0.00000000       0.00000000       5.23575758       0.00000000       0.00000000      -0.00782263
2
Properties=species:S:1:pos:R:3:forces:R:3 energy=-0.07254075601205177 pbc="F F F"
Kr       0.00000000       0.00000000       0.00000000       0.00000000       0.00000000       0.00711286
Kr       0.00000000       0.00000000       5.29454545       0.00000000       0.00000000      -0.00711286
2
Properties=species:S:1:pos:R:3:forces:R:3 energy=-0.07213743506718823 pbc="F F F"
Kr       0.00000000       0.00000000       0.00000000       0.00000000       0.00000000       0.00666698
Kr       0.00000000       0.00000000       5.35333333       0.00000000       0.00000000      -0.00666698
2
Properties=species:S:1:pos:R:3:forces:R:3 energy=-0.07175052129927056 pbc="F F F"
Kr       0.00000000       0.00000000       0.00000000       0.00000000       0.00000000       0.00652890
Kr       0.00000000       0.00000000       5.41212121       0.00000000       0.00000000      -0.00652890
2
Properties=species:S:1:pos:R:3:forces:R:3 energy=-0.07137072754693269 pbc="F F F"
Kr       0.00000000       0.00000000       0.00000000       0.00000000       0.00000000       0.00634417
Kr       0.00000000       0.00000000       5.47090909       0.00000000       0.00000000      -0.00634417
2
Properties=species:S:1:pos:R:3:forces:R:3 energy=-0.07101098979284458 pbc="F F F"
Kr       0.00000000       0.00000000       0.00000000       0.00000000       0.00000000       0.00586317
Kr       0.00000000       0.00000000       5.52969697       0.00000000       0.00000000      -0.00586317
2
Properties=species:S:1:pos:R:3:forces:R:3 energy=-0.07068034681406159 pbc="F F F"
Kr       0.00000000       0.00000000       0.00000000       0.00000000       0.00000000       0.00541802
Kr       0.00000000       0.00000000       5.58848485       0.00000000       0.00000000      -0.00541802
2
Properties=species:S:1:pos:R:3:forces:R:3 energy=-0.07037072931268173 pbc="F F F"
Kr       0.00000000       0.00000000       0.00000000       0.00000000       0.00000000       0.00513260
Kr       0.00000000       0.00000000       5.64727273       0.00000000       0.00000000      -0.00513260
2
Properties=species:S:1:pos:R:3:forces:R:3 energy=-0.07007877660175565 pbc="F F F"
Kr       0.00000000       0.00000000       0.00000000       0.00000000       0.00000000       0.00473460
Kr       0.00000000       0.00000000       5.70606061       0.00000000       0.00000000      -0.00473460
2
Properties=species:S:1:pos:R:3:forces:R:3 energy=-0.06982635280540318 pbc="F F F"
Kr       0.00000000       0.00000000       0.00000000       0.00000000       0.00000000       0.00374257
Kr       0.00000000       0.00000000       5.76484848       0.00000000       0.00000000      -0.00374257
2
Properties=species:S:1:pos:R:3:forces:R:3 energy=-0.06964118002799755 pbc="F F F"
Kr       0.00000000       0.00000000       0.00000000       0.00000000       0.00000000       0.00263326
Kr       0.00000000       0.00000000       5.82363636       0.00000000       0.00000000      -0.00263326
2
Properties=species:S:1:pos:R:3:forces:R:3 energy=-0.0695026072869033 pbc="F F F"
Kr       0.00000000       0.00000000       0.00000000       0.00000000       0.00000000       0.00219265
Kr       0.00000000       0.00000000       5.88242424       0.00000000       0.00000000      -0.00219265
2
Properties=species:S:1:pos:R:3:forces:R:3 energy=-0.06937547406825306 pbc="F F F"
Kr       0.00000000       0.00000000       0.00000000       0.00000000       0.00000000       0.00215695
Kr       0.00000000       0.00000000       5.94121212       0.00000000       0.00000000      -0.00215695
2
Properties=species:S:1:pos:R:3:forces:R:3 energy=-0.06924976731860122 pbc="F F F"
Kr       0.00000000       0.00000000       0.00000000       0.00000000       0.00000000       0.00209550
Kr       0.00000000       0.00000000       6.00000000       0.00000000       0.00000000      -0.00209550
