2
Properties=species:S:1:pos:R:3:forces:R:3 energy=113.52049265680353 pbc="F F F"
Li       0.00000000       0.00000000       0.00000000       0.00000000       0.00000000   -1432.32543945
Li       0.00000000       0.00000000       0.18000000       0.00000000       0.00000000    1432.32543945
2
Properties=species:S:1:pos:R:3:forces:R:3 energy=57.04983149347344 pbc="F F F"
Li       0.00000000       0.00000000       0.00000000       0.00000000       0.00000000    -625.04907227
Li       0.00000000       0.00000000       0.23878788       0.00000000       0.00000000     625.04907227
2
Properties=species:S:1:pos:R:3:forces:R:3 energy=30.85656367120782 pbc="F F F"
Li       0.00000000       0.00000000       0.00000000       0.00000000       0.00000000    -310.00405884
Li       0.00000000       0.00000000       0.29757576       0.00000000       0.00000000     310.00405884
2
Properties=species:S:1:pos:R:3:forces:R:3 energy=17.35456286407591 pbc="F F F"
Li       0.00000000       0.00000000       0.00000000       0.00000000       0.00000000    -166.38912964
Li       0.00000000       0.00000000       0.35636364       0.00000000       0.00000000     166.38912964
2
Properties=species:S:1:pos:R:3:forces:R:3 energy=9.964255442375006 pbc="F F F"
Li       0.00000000       0.00000000       0.00000000       0.00000000       0.00000000     -92.36778259
Li       0.00000000       0.00000000       0.41515152       0.00000000       0.00000000      92.36778259
2
Properties=species:S:1:pos:R:3:forces:R:3 energy=5.909572241828985 pbc="F F F"
Li       0.00000000       0.00000000       0.00000000       0.00000000       0.00000000     -48.83243942
Li       0.00000000       0.00000000       0.47393939       0.00000000       0.00000000      48.83243942
2
Properties=species:S:1:pos:R:3:forces:R:3 energy=3.9670585517842585 pbc="F F F"
Li       0.00000000       0.00000000       0.00000000       0.00000000       0.00000000     -18.62994576
Li       0.00000000       0.00000000       0.53272727       0.00000000       0.00000000      18.62994576
2
Properties=species:S:1:pos:R:3:forces:R:3 energy=3.614833273476933 pbc="F F F"
Li       0.00000000       0.00000000       0.00000000       0.00000000       0.00000000       6.10130119
Li       0.00000000       0.00000000       0.59151515       0.00000000       0.00000000      -6.10130119
2
Properties=species:S:1:pos:R:3:forces:R:3 energy=4.640461646149808 pbc="F F F"
Li       0.00000000       0.00000000       0.00000000       0.00000000       0.00000000      28.44261742
Li       0.00000000       0.00000000       0.65030303       0.00000000       0.00000000     -28.44261742
2
Properties=species:S:1:pos:R:3:forces:R:3 energy=6.792535099173193 pbc="F F F"
Li       0.00000000       0.00000000       0.00000000       0.00000000       0.00000000      40.09600830
Li       0.00000000       0.00000000       0.70909091       0.00000000       0.00000000     -40.09600830
2
Properties=species:S:1:pos:R:3:forces:R:3 energy=8.307206529394918 pbc="F F F"
Li       0.00000000       0.00000000       0.00000000       0.00000000       0.00000000      10.04261398
Li       0.00000000       0.00000000       0.76787879       0.00000000       0.00000000     -10.04261398
2
Properties=species:S:1:pos:R:3:forces:R:3 energy=8.271507792348258 pbc="F F F"
Li       0.00000000       0.00000000       0.00000000       0.00000000       0.00000000      -9.10346317
Li       0.00000000       0.00000000       0.82666667       0.00000000       0.00000000       9.10346317
2
Properties=species:S:1:pos:R:3:forces:R:3 energy=7.493977343929792 pbc="F F F"
Li       0.00000000       0.00000000       0.00000000       0.00000000       0.00000000     -15.66956997
Li       0.00000000       0.00000000       0.88545455       0.00000000       0.00000000      15.66956997
2
Properties=species:S:1:pos:R:3:forces:R:3 energy=6.53969060063791 pbc="F F F"
Li       0.00000000       0.00000000       0.00000000       0.00000000       0.00000000     -16.48304176
Li       0.00000000       0.00000000       0.94424242       0.00000000       0.00000000      16.48304176
2
Properties=species:S:1:pos:R:3:forces:R:3 energy=5.572897014316849 pbc="F F F"
Li       0.00000000       0.00000000       0.00000000       0.00000000       0.00000000     -16.23117828
Li       0.00000000       0.00000000       1.00303030       0.00000000       0.00000000      16.23117828
2
Properties=species:S:1:pos:R:3:forces:R:3 energy=4.659358656476276 pbc="F F F"
Li       0.00000000       0.00000000       0.00000000       0.00000000       0.00000000     -14.62437534
Li       0.00000000       0.00000000       1.06181818       0.00000000       0.00000000      14.62437534
2
Properties=species:S:1:pos:R:3:forces:R:3 energy=3.8643448000941434 pbc="F F F"
Li       0.00000000       0.00000000       0.00000000       0.00000000       0.00000000     -12.47215462
Li       0.00000000       0.00000000       1.12060606       0.00000000       0.00000000      12.47215462
2
Properties=species:S:1:pos:R:3:forces:R:3 energy=3.184687386608682 pbc="F F F"
Li       0.00000000       0.00000000       0.00000000       0.00000000       0.00000000     -10.65396500
Li       0.00000000       0.00000000       1.17939394       0.00000000       0.00000000      10.65396500
2
Properties=species:S:1:pos:R:3:forces:R:3 energy=2.6144305401000643 pbc="F F F"
Li       0.00000000       0.00000000       0.00000000       0.00000000       0.00000000      -8.76942444
Li       0.00000000       0.00000000       1.23818182       0.00000000       0.00000000       8.76942444
2
Properties=species:S:1:pos:R:3:forces:R:3 energy=2.1441255572163604 pbc="F F F"
Li       0.00000000       0.00000000       0.00000000       0.00000000       0.00000000      -7.33368492
Li       0.00000000       0.00000000       1.29696970       0.00000000       0.00000000       7.33368492
2
Properties=species:S:1:pos:R:3:forces:R:3 energy=1.7416694570610092 pbc="F F F"
Li       0.00000000       0.00000000       0.00000000       0.00000000       0.00000000      -6.42647839
Li       0.00000000       0.00000000       1.35575758       0.00000000       0.00000000       6.42647839
2
Properties=species:S:1:pos:R:3:forces:R:3 energy=1.383086480765331 pbc="F F F"
Li       0.00000000       0.00000000       0.00000000       0.00000000       0.00000000      -5.79885292
Li       0.00000000       0.00000000       1.41454545       0.00000000       0.00000000       5.79885292
2
Properties=species:S:1:pos:R:3:forces:R:3 energy=1.0583531389648682 pbc="F F F"
Li       0.00000000       0.00000000       0.00000000       0.00000000       0.00000000      -5.25443649
Li       0.00000000       0.00000000       1.47333333       0.00000000       0.00000000       5.25443649
2
Properties=species:S:1:pos:R:3:forces:R:3 energy=0.7646712896107705 pbc="F F F"
Li       0.00000000       0.00000000       0.00000000       0.00000000       0.00000000      -4.74401283
Li       0.00000000       0.00000000       1.53212121       0.00000000       0.00000000       4.74401283
2
Properties=species:S:1:pos:R:3:forces:R:3 energy=0.49933347624537855 pbc="F F F"
Li       0.00000000       0.00000000       0.00000000       0.00000000       0.00000000      -4.29614353
Li       0.00000000       0.00000000       1.59090909       0.00000000       0.00000000       4.29614353
2
Properties=species:S:1:pos:R:3:forces:R:3 energy=0.2581464853502724 pbc="F F F"
Li       0.00000000       0.00000000       0.00000000       0.00000000       0.00000000      -3.91688848
Li       0.00000000       0.00000000       1.64969697       0.00000000       0.00000000       3.91688848
2
Properties=species:S:1:pos:R:3:forces:R:3 energy=0.03855279624371345 pbc="F F F"
Li       0.00000000       0.00000000       0.00000000       0.00000000       0.00000000      -3.55194998
Li       0.00000000       0.00000000       1.70848485       0.00000000       0.00000000       3.55194998
2
Properties=species:S:1:pos:R:3:forces:R:3 energy=-0.1592363942268203 pbc="F F F"
Li       0.00000000       0.00000000       0.00000000       0.00000000       0.00000000      -3.17670798
Li       0.00000000       0.00000000       1.76727273       0.00000000       0.00000000       3.17670798
2
Properties=species:S:1:pos:R:3:forces:R:3 energy=-0.3352411676148798 pbc="F F F"
Li       0.00000000       0.00000000       0.00000000       0.00000000       0.00000000      -2.81595778
Li       0.00000000       0.00000000       1.82606061       0.00000000       0.00000000       2.81595778
2
Properties=species:S:1:pos:R:3:forces:R:3 energy=-0.49105405115495854 pbc="F F F"
Li       0.00000000       0.00000000       0.00000000       0.00000000       0.00000000      -2.49163151
Li       0.00000000       0.00000000       1.88484848       0.00000000       0.00000000       2.49163151
2
Properties=species:S:1:pos:R:3:forces:R:3 energy=-0.6289473034505683 pbc="F F F"
Li       0.00000000       0.00000000       0.00000000       0.00000000       0.00000000      -2.20527506
Li       0.00000000       0.00000000       1.94363636       0.00000000       0.00000000       2.20527506
2
Properties=species:S:1:pos:R:3:forces:R:3 energy=-0.7509138979145584 pbc="F F F"
Li       0.00000000       0.00000000       0.00000000       0.00000000       0.00000000      -1.94820392
Li       0.00000000       0.00000000       2.00242424       0.00000000       0.00000000       1.94820392
2
Properties=species:S:1:pos:R:3:forces:R:3 energy=-0.8584226402538786 pbc="F F F"
Li       0.00000000       0.00000000       0.00000000       0.00000000       0.00000000      -1.71241999
Li       0.00000000       0.00000000       2.06121212       0.00000000       0.00000000       1.71241999
2
Properties=species:S:1:pos:R:3:forces:R:3 energy=-0.9525907640979558 pbc="F F F"
Li       0.00000000       0.00000000       0.00000000       0.00000000       0.00000000      -1.49398327
Li       0.00000000       0.00000000       2.12000000       0.00000000       0.00000000       1.49398327
2
Properties=species:S:1:pos:R:3:forces:R:3 energy=-1.0343902904904507 pbc="F F F"
Li       0.00000000       0.00000000       0.00000000       0.00000000       0.00000000      -1.29146183
Li       0.00000000       0.00000000       2.17878788       0.00000000       0.00000000       1.29146183
2
Properties=species:S:1:pos:R:3:forces:R:3 energy=-1.1047307840628235 pbc="F F F"
Li       0.00000000       0.00000000       0.00000000       0.00000000       0.00000000      -1.10400975
Li       0.00000000       0.00000000       2.23757576       0.00000000       0.00000000       1.10400975
2
Properties=species:S:1:pos:R:3:forces:R:3 energy=-1.1644731672247397 pbc="F F F"
Li       0.00000000       0.00000000       0.00000000       0.00000000       0.00000000      -0.93075269
Li       0.00000000       0.00000000       2.29636364       0.00000000       0.00000000       0.93075269
2
Properties=species:S:1:pos:R:3:forces:R:3 energy=-1.2144295690286173 pbc="F F F"
Li       0.00000000       0.00000000       0.00000000       0.00000000       0.00000000      -0.77102262
Li       0.00000000       0.00000000       2.35515152       0.00000000       0.00000000       0.77102262
2
Properties=species:S:1:pos:R:3:forces:R:3 energy=-1.2553872538947033 pbc="F F F"
Li       0.00000000       0.00000000       0.00000000       0.00000000       0.00000000      -0.62458932
Li       0.00000000       0.00000000       2.41393939       0.00000000       0.00000000       0.62458932
2
Properties=species:S:1:pos:R:3:forces:R:3 energy=-1.2881292554096595 pbc="F F F"
Li       0.00000000       0.00000000       0.00000000       0.00000000       0.00000000      -0.49156514
Li       0.00000000       0.00000000       2.47272727       0.00000000       0.00000000       0.49156514
2
Properties=species:S:1:pos:R:3:forces:R:3 energy=-1.313447988200478 pbc="F F F"
Li       0.00000000       0.00000000       0.00000000       0.00000000       0.00000000      -0.37204781
Li       0.00000000       0.00000000       2.53151515       0.00000000       0.00000000       0.37204781
2
Properties=species:S:1:pos:R:3:forces:R:3 energy=-1.3321332257314744 pbc="F F F"
Li       0.00000000       0.00000000       0.00000000       0.00000000       0.00000000      -0.26578850
Li       0.00000000       0.00000000       2.59030303       0.00000000       0.00000000       0.26578850
2
Properties=species:S:1:pos:R:3:forces:R:3 energy=-1.3449440515476452 pbc="F F F"
Li       0.00000000       0.00000000       0.00000000       0.00000000       0.00000000      -0.17206876
Li       0.00000000       0.00000000       2.64909091       0.00000000       0.00000000       0.17206876
2
Properties=species:S:1:pos:R:3:forces:R:3 energy=-1.3525932589056988 pbc="F F F"
Li       0.00000000       0.00000000       0.00000000       0.00000000       0.00000000      -0.09004010
Li       0.00000000       0.00000000       2.70787879       0.00000000       0.00000000       0.09004010
2
Properties=species:S:1:pos:R:3:forces:R:3 energy=-1.3557451884174874 pbc="F F F"
Li       0.00000000       0.00000000       0.00000000       0.00000000       0.00000000      -0.01899189
Li       0.00000000       0.00000000       2.76666667       0.00000000       0.00000000       0.01899189
2
Properties=species:S:1:pos:R:3:forces:R:3 energy=-1.3550384479265605 pbc="F F F"
Li       0.00000000       0.00000000       0.00000000       0.00000000       0.00000000       0.04118975
Li       0.00000000       0.00000000       2.82545455       0.00000000       0.00000000      -0.04118975
2
Properties=species:S:1:pos:R:3:forces:R:3 energy=-1.3511372261228607 pbc="F F F"
Li       0.00000000       0.00000000       0.00000000       0.00000000       0.00000000       0.08930944
Li       0.00000000       0.00000000       2.88424242       0.00000000       0.00000000      -0.08930944
2
Properties=species:S:1:pos:R:3:forces:R:3 energy=-1.34484418762646 pbc="F F F"
Li       0.00000000       0.00000000       0.00000000       0.00000000       0.00000000       0.12165232
Li       0.00000000       0.00000000       2.94303030       0.00000000       0.00000000      -0.12165232
2
Properties=species:S:1:pos:R:3:forces:R:3 energy=-1.3372959945852354 pbc="F F F"
Li       0.00000000       0.00000000       0.00000000       0.00000000       0.00000000       0.13022518
Li       0.00000000       0.00000000       3.00181818       0.00000000       0.00000000      -0.13022518
2
Properties=species:S:1:pos:R:3:forces:R:3 energy=-1.3302397761586953 pbc="F F F"
Li       0.00000000       0.00000000       0.00000000       0.00000000       0.00000000       0.10285905
Li       0.00000000       0.00000000       3.06060606       0.00000000       0.00000000      -0.10285905
2
Properties=species:S:1:pos:R:3:forces:R:3 energy=-1.3260219096105055 pbc="F F F"
Li       0.00000000       0.00000000       0.00000000       0.00000000       0.00000000       0.03501278
Li       0.00000000       0.00000000       3.11939394       0.00000000       0.00000000      -0.03501278
2
Properties=species:S:1:pos:R:3:forces:R:3 energy=-1.3263017665369277 pbc="F F F"
Li       0.00000000       0.00000000       0.00000000       0.00000000       0.00000000      -0.04022765
Li       0.00000000       0.00000000       3.17818182       0.00000000       0.00000000       0.04022765
2
Properties=species:S:1:pos:R:3:forces:R:3 energy=-1.329507189163305 pbc="F F F"
Li       0.00000000       0.00000000       0.00000000       0.00000000       0.00000000      -0.05363694
Li       0.00000000       0.00000000       3.23696970       0.00000000       0.00000000       0.05363694
2
Properties=species:S:1:pos:R:3:forces:R:3 energy=-1.3308109348981216 pbc="F F F"
Li       0.00000000       0.00000000       0.00000000       0.00000000       0.00000000       0.02168825
Li       0.00000000       0.00000000       3.29575758       0.00000000       0.00000000      -0.02168825
2
Properties=species:S:1:pos:R:3:forces:R:3 energy=-1.3261111390646496 pbc="F F F"
Li       0.00000000       0.00000000       0.00000000       0.00000000       0.00000000       0.14022470
Li       0.00000000       0.00000000       3.35454545       0.00000000       0.00000000      -0.14022470
2
Properties=species:S:1:pos:R:3:forces:R:3 energy=-1.3145175524842916 pbc="F F F"
Li       0.00000000       0.00000000       0.00000000       0.00000000       0.00000000       0.25015086
Li       0.00000000       0.00000000       3.41333333       0.00000000       0.00000000      -0.25015086
2
Properties=species:S:1:pos:R:3:forces:R:3 energy=-1.297271109289129 pbc="F F F"
Li       0.00000000       0.00000000       0.00000000       0.00000000       0.00000000       0.33161122
Li       0.00000000       0.00000000       3.47212121       0.00000000       0.00000000      -0.33161122
2
Properties=species:S:1:pos:R:3:forces:R:3 energy=-1.2760617275594646 pbc="F F F"
Li       0.00000000       0.00000000       0.00000000       0.00000000       0.00000000       0.38600653
Li       0.00000000       0.00000000       3.53090909       0.00000000       0.00000000      -0.38600653
2
Properties=species:S:1:pos:R:3:forces:R:3 energy=-1.2522752178295657 pbc="F F F"
Li       0.00000000       0.00000000       0.00000000       0.00000000       0.00000000       0.42049372
Li       0.00000000       0.00000000       3.58969697       0.00000000       0.00000000      -0.42049372
2
Properties=species:S:1:pos:R:3:forces:R:3 energy=-1.2268843446919693 pbc="F F F"
Li       0.00000000       0.00000000       0.00000000       0.00000000       0.00000000       0.44150397
Li       0.00000000       0.00000000       3.64848485       0.00000000       0.00000000      -0.44150397
2
Properties=species:S:1:pos:R:3:forces:R:3 energy=-1.2005407096387322 pbc="F F F"
Li       0.00000000       0.00000000       0.00000000       0.00000000       0.00000000       0.45350438
Li       0.00000000       0.00000000       3.70727273       0.00000000       0.00000000      -0.45350438
2
Properties=species:S:1:pos:R:3:forces:R:3 energy=-1.1736835333692557 pbc="F F F"
Li       0.00000000       0.00000000       0.00000000       0.00000000       0.00000000       0.45933107
Li       0.00000000       0.00000000       3.76606061       0.00000000       0.00000000      -0.45933107
2
Properties=species:S:1:pos:R:3:forces:R:3 energy=-1.146620981399266 pbc="F F F"
Li       0.00000000       0.00000000       0.00000000       0.00000000       0.00000000       0.46071613
Li       0.00000000       0.00000000       3.82484848       0.00000000       0.00000000      -0.46071613
2
Properties=species:S:1:pos:R:3:forces:R:3 energy=-1.11958093154589 pbc="F F F"
Li       0.00000000       0.00000000       0.00000000       0.00000000       0.00000000       0.45869172
Li       0.00000000       0.00000000       3.88363636       0.00000000       0.00000000      -0.45869172
2
Properties=species:S:1:pos:R:3:forces:R:3 energy=-1.0927445709684342 pbc="F F F"
Li       0.00000000       0.00000000       0.00000000       0.00000000       0.00000000       0.45386636
Li       0.00000000       0.00000000       3.94242424       0.00000000       0.00000000      -0.45386636
2
Properties=species:S:1:pos:R:3:forces:R:3 energy=-1.0662651821693063 pbc="F F F"
Li       0.00000000       0.00000000       0.00000000       0.00000000       0.00000000       0.44660395
Li       0.00000000       0.00000000       4.00121212       0.00000000       0.00000000      -0.44660395
2
Properties=species:S:1:pos:R:3:forces:R:3 energy=-1.0402780219273087 pbc="F F F"
Li       0.00000000       0.00000000       0.00000000       0.00000000       0.00000000       0.43714976
Li       0.00000000       0.00000000       4.06000000       0.00000000       0.00000000      -0.43714976
2
Properties=species:S:1:pos:R:3:forces:R:3 energy=-1.0149058868251175 pbc="F F F"
Li       0.00000000       0.00000000       0.00000000       0.00000000       0.00000000       0.42571920
Li       0.00000000       0.00000000       4.11878788       0.00000000       0.00000000      -0.42571920
2
Properties=species:S:1:pos:R:3:forces:R:3 energy=-0.9902576417486401 pbc="F F F"
Li       0.00000000       0.00000000       0.00000000       0.00000000       0.00000000       0.41255525
Li       0.00000000       0.00000000       4.17757576       0.00000000       0.00000000      -0.41255525
2
Properties=species:S:1:pos:R:3:forces:R:3 energy=-0.9664271126695821 pbc="F F F"
Li       0.00000000       0.00000000       0.00000000       0.00000000       0.00000000       0.39796284
Li       0.00000000       0.00000000       4.23636364       0.00000000       0.00000000      -0.39796284
2
Properties=species:S:1:pos:R:3:forces:R:3 energy=-0.9434873523523877 pbc="F F F"
Li       0.00000000       0.00000000       0.00000000       0.00000000       0.00000000       0.38231027
Li       0.00000000       0.00000000       4.29515152       0.00000000       0.00000000      -0.38231027
2
Properties=species:S:1:pos:R:3:forces:R:3 energy=-0.9214893144689874 pbc="F F F"
Li       0.00000000       0.00000000       0.00000000       0.00000000       0.00000000       0.36601952
Li       0.00000000       0.00000000       4.35393939       0.00000000       0.00000000      -0.36601952
2
Properties=species:S:1:pos:R:3:forces:R:3 energy=-0.9004567782845021 pbc="F F F"
Li       0.00000000       0.00000000       0.00000000       0.00000000       0.00000000       0.34951752
Li       0.00000000       0.00000000       4.41272727       0.00000000       0.00000000      -0.34951752
2
Properties=species:S:1:pos:R:3:forces:R:3 energy=-0.8803908288451012 pbc="F F F"
Li       0.00000000       0.00000000       0.00000000       0.00000000       0.00000000       0.33318812
Li       0.00000000       0.00000000       4.47151515       0.00000000       0.00000000      -0.33318812
2
Properties=species:S:1:pos:R:3:forces:R:3 energy=-0.8612727522630201 pbc="F F F"
Li       0.00000000       0.00000000       0.00000000       0.00000000       0.00000000       0.31730691
Li       0.00000000       0.00000000       4.53030303       0.00000000       0.00000000      -0.31730691
2
Properties=species:S:1:pos:R:3:forces:R:3 energy=-0.8430722090564906 pbc="F F F"
Li       0.00000000       0.00000000       0.00000000       0.00000000       0.00000000       0.30199006
Li       0.00000000       0.00000000       4.58909091       0.00000000       0.00000000      -0.30199006
2
Properties=species:S:1:pos:R:3:forces:R:3 energy=-0.8257565273066328 pbc="F F F"
Li       0.00000000       0.00000000       0.00000000       0.00000000       0.00000000       0.28717461
Li       0.00000000       0.00000000       4.64787879       0.00000000       0.00000000      -0.28717461
2
Properties=species:S:1:pos:R:3:forces:R:3 energy=-0.8093020186204737 pbc="F F F"
Li       0.00000000       0.00000000       0.00000000       0.00000000       0.00000000       0.27262616
Li       0.00000000       0.00000000       4.70666667       0.00000000       0.00000000      -0.27262616
2
Properties=species:S:1:pos:R:3:forces:R:3 energy=-0.7937033764099449 pbc="F F F"
Li       0.00000000       0.00000000       0.00000000       0.00000000       0.00000000       0.25802240
Li       0.00000000       0.00000000       4.76545455       0.00000000       0.00000000      -0.25802240
2
Properties=species:S:1:pos:R:3:forces:R:3 energy=-0.7789712269337564 pbc="F F F"
Li       0.00000000       0.00000000       0.00000000       0.00000000       0.00000000       0.24307919
Li       0.00000000       0.00000000       4.82424242       0.00000000       0.00000000      -0.24307919
2
Properties=species:S:1:pos:R:3:forces:R:3 energy=-0.7651319401480764 pbc="F F F"
Li       0.00000000       0.00000000       0.00000000       0.00000000       0.00000000       0.22772457
Li       0.00000000       0.00000000       4.88303030       0.00000000       0.00000000      -0.22772457
2
Properties=species:S:1:pos:R:3:forces:R:3 energy=-0.7521997206455947 pbc="F F F"
Li       0.00000000       0.00000000       0.00000000       0.00000000       0.00000000       0.21223634
Li       0.00000000       0.00000000       4.94181818       0.00000000       0.00000000      -0.21223634
2
Properties=species:S:1:pos:R:3:forces:R:3 energy=-0.7401665431421036 pbc="F F F"
Li       0.00000000       0.00000000       0.00000000       0.00000000       0.00000000       0.19731626
Li       0.00000000       0.00000000       5.00060606       0.00000000       0.00000000      -0.19731626
2
Properties=species:S:1:pos:R:3:forces:R:3 energy=-0.7289690880737927 pbc="F F F"
Li       0.00000000       0.00000000       0.00000000       0.00000000       0.00000000       0.18395826
Li       0.00000000       0.00000000       5.05939394       0.00000000       0.00000000      -0.18395826
2
Properties=species:S:1:pos:R:3:forces:R:3 energy=-0.7184874049524861 pbc="F F F"
Li       0.00000000       0.00000000       0.00000000       0.00000000       0.00000000       0.17313935
Li       0.00000000       0.00000000       5.11818182       0.00000000       0.00000000      -0.17313935
2
Properties=species:S:1:pos:R:3:forces:R:3 energy=-0.7085535332004148 pbc="F F F"
Li       0.00000000       0.00000000       0.00000000       0.00000000       0.00000000       0.16529730
Li       0.00000000       0.00000000       5.17696970       0.00000000       0.00000000      -0.16529730
2
Properties=species:S:1:pos:R:3:forces:R:3 energy=-0.699006915214982 pbc="F F F"
Li       0.00000000       0.00000000       0.00000000       0.00000000       0.00000000       0.15973511
Li       0.00000000       0.00000000       5.23575758       0.00000000       0.00000000      -0.15973511
2
Properties=species:S:1:pos:R:3:forces:R:3 energy=-0.6897718723195292 pbc="F F F"
Li       0.00000000       0.00000000       0.00000000       0.00000000       0.00000000       0.15417203
Li       0.00000000       0.00000000       5.29454545       0.00000000       0.00000000      -0.15417203
2
Properties=species:S:1:pos:R:3:forces:R:3 energy=-0.6809421440765705 pbc="F F F"
Li       0.00000000       0.00000000       0.00000000       0.00000000       0.00000000       0.14551792
Li       0.00000000       0.00000000       5.35333333       0.00000000       0.00000000      -0.14551792
2
Properties=species:S:1:pos:R:3:forces:R:3 energy=-0.6727227731751606 pbc="F F F"
Li       0.00000000       0.00000000       0.00000000       0.00000000       0.00000000       0.13415709
Li       0.00000000       0.00000000       5.41212121       0.00000000       0.00000000      -0.13415709
2
Properties=species:S:1:pos:R:3:forces:R:3 energy=-0.6650556391261224 pbc="F F F"
Li       0.00000000       0.00000000       0.00000000       0.00000000       0.00000000       0.12843350
Li       0.00000000       0.00000000       5.47090909       0.00000000       0.00000000      -0.12843350
2
Properties=species:S:1:pos:R:3:forces:R:3 energy=-0.6574453453431197 pbc="F F F"
Li       0.00000000       0.00000000       0.00000000       0.00000000       0.00000000       0.13070688
Li       0.00000000       0.00000000       5.52969697       0.00000000       0.00000000      -0.13070688
2
Properties=species:S:1:pos:R:3:forces:R:3 energy=-0.6498570318195965 pbc="F F F"
Li       0.00000000       0.00000000       0.00000000       0.00000000       0.00000000       0.12503323
Li       0.00000000       0.00000000       5.58848485       0.00000000       0.00000000      -0.12503323
2
Properties=species:S:1:pos:R:3:forces:R:3 energy=-0.6429722394458408 pbc="F F F"
Li       0.00000000       0.00000000       0.00000000       0.00000000       0.00000000       0.10864595
Li       0.00000000       0.00000000       5.64727273       0.00000000       0.00000000      -0.10864595
2
Properties=species:S:1:pos:R:3:forces:R:3 energy=-0.6369522334231608 pbc="F F F"
Li       0.00000000       0.00000000       0.00000000       0.00000000       0.00000000       0.09900021
Li       0.00000000       0.00000000       5.70606061       0.00000000       0.00000000      -0.09900021
2
Properties=species:S:1:pos:R:3:forces:R:3 energy=-0.6309153265500684 pbc="F F F"
Li       0.00000000       0.00000000       0.00000000       0.00000000       0.00000000       0.10833424
Li       0.00000000       0.00000000       5.76484848       0.00000000       0.00000000      -0.10833424
2
Properties=species:S:1:pos:R:3:forces:R:3 energy=-0.6243730604737217 pbc="F F F"
Li       0.00000000       0.00000000       0.00000000       0.00000000       0.00000000       0.10936475
Li       0.00000000       0.00000000       5.82363636       0.00000000       0.00000000      -0.10936475
2
Properties=species:S:1:pos:R:3:forces:R:3 energy=-0.6187756117449708 pbc="F F F"
Li       0.00000000       0.00000000       0.00000000       0.00000000       0.00000000       0.07707435
Li       0.00000000       0.00000000       5.88242424       0.00000000       0.00000000      -0.07707435
2
Properties=species:S:1:pos:R:3:forces:R:3 energy=-0.6154780587479081 pbc="F F F"
Li       0.00000000       0.00000000       0.00000000       0.00000000       0.00000000       0.03650991
Li       0.00000000       0.00000000       5.94121212       0.00000000       0.00000000      -0.03650991
2
Properties=species:S:1:pos:R:3:forces:R:3 energy=-0.6140097802617062 pbc="F F F"
Li       0.00000000       0.00000000       0.00000000       0.00000000       0.00000000       0.01887134
Li       0.00000000       0.00000000       6.00000000       0.00000000       0.00000000      -0.01887134
