2
Properties=species:S:1:pos:R:3:forces:R:3 energy=7788.2653670320715 pbc="F F F"
Mo       0.00000000       0.00000000       0.00000000       0.00000000       0.00000000 -110719.21093750
Mo       0.00000000       0.00000000       0.18000000       0.00000000       0.00000000  110719.21093750
2
Properties=species:S:1:pos:R:3:forces:R:3 energy=3831.996324063321 pbc="F F F"
Mo       0.00000000       0.00000000       0.00000000       0.00000000       0.00000000  -38596.32031250
Mo       0.00000000       0.00000000       0.23878788       0.00000000       0.00000000   38596.32031250
2
Properties=species:S:1:pos:R:3:forces:R:3 energy=2349.384751804032 pbc="F F F"
Mo       0.00000000       0.00000000       0.00000000       0.00000000       0.00000000  -15692.14941406
Mo       0.00000000       0.00000000       0.29757576       0.00000000       0.00000000   15692.14941406
2
Properties=species:S:1:pos:R:3:forces:R:3 energy=1723.6247420384068 pbc="F F F"
Mo       0.00000000       0.00000000       0.00000000       0.00000000       0.00000000   -6873.91357422
Mo       0.00000000       0.00000000       0.35636364       0.00000000       0.00000000    6873.91357422
2
Properties=species:S:1:pos:R:3:forces:R:3 energy=1445.312242051078 pbc="F F F"
Mo       0.00000000       0.00000000       0.00000000       0.00000000       0.00000000   -3117.28222656
Mo       0.00000000       0.00000000       0.41515152       0.00000000       0.00000000    3117.28222656
2
Properties=species:S:1:pos:R:3:forces:R:3 energy=1313.166368040312 pbc="F F F"
Mo       0.00000000       0.00000000       0.00000000       0.00000000       0.00000000   -1654.71252441
Mo       0.00000000       0.00000000       0.47393939       0.00000000       0.00000000    1654.71252441
2
Properties=species:S:1:pos:R:3:forces:R:3 energy=1212.694566307842 pbc="F F F"
Mo       0.00000000       0.00000000       0.00000000       0.00000000       0.00000000   -2502.74438477
Mo       0.00000000       0.00000000       0.53272727       0.00000000       0.00000000    2502.74438477
2
Properties=species:S:1:pos:R:3:forces:R:3 energy=1060.9056259351753 pbc="F F F"
Mo       0.00000000       0.00000000       0.00000000       0.00000000       0.00000000   -2715.50878906
Mo       0.00000000       0.00000000       0.59151515       0.00000000       0.00000000    2715.50878906
2
Properties=species:S:1:pos:R:3:forces:R:3 energy=879.0832993573824 pbc="F F F"
Mo       0.00000000       0.00000000       0.00000000       0.00000000       0.00000000   -3342.08691406
Mo       0.00000000       0.00000000       0.65030303       0.00000000       0.00000000    3342.08691406
2
Properties=species:S:1:pos:R:3:forces:R:3 energy=681.6511095553603 pbc="F F F"
Mo       0.00000000       0.00000000       0.00000000       0.00000000       0.00000000   -3383.19091797
Mo       0.00000000       0.00000000       0.70909091       0.00000000       0.00000000    3383.19091797
2
Properties=species:S:1:pos:R:3:forces:R:3 energy=501.1927662522416 pbc="F F F"
Mo       0.00000000       0.00000000       0.00000000       0.00000000       0.00000000   -2729.08984375
Mo       0.00000000       0.00000000       0.76787879       0.00000000       0.00000000    2729.08984375
2
Properties=species:S:1:pos:R:3:forces:R:3 energy=364.0618766764457 pbc="F F F"
Mo       0.00000000       0.00000000       0.00000000       0.00000000       0.00000000   -1900.81750488
Mo       0.00000000       0.00000000       0.82666667       0.00000000       0.00000000    1900.81750488
2
Properties=species:S:1:pos:R:3:forces:R:3 energy=271.94151577914454 pbc="F F F"
Mo       0.00000000       0.00000000       0.00000000       0.00000000       0.00000000   -1365.11450195
Mo       0.00000000       0.00000000       0.88545455       0.00000000       0.00000000    1365.11450195
2
Properties=species:S:1:pos:R:3:forces:R:3 energy=201.8708224303111 pbc="F F F"
Mo       0.00000000       0.00000000       0.00000000       0.00000000       0.00000000   -1019.21099854
Mo       0.00000000       0.00000000       0.94424242       0.00000000       0.00000000    1019.21099854
2
Properties=species:S:1:pos:R:3:forces:R:3 energy=148.85136832323275 pbc="F F F"
Mo       0.00000000       0.00000000       0.00000000       0.00000000       0.00000000    -805.70721436
Mo       0.00000000       0.00000000       1.00303030       0.00000000       0.00000000     805.70721436
2
Properties=species:S:1:pos:R:3:forces:R:3 energy=106.26953657790654 pbc="F F F"
Mo       0.00000000       0.00000000       0.00000000       0.00000000       0.00000000    -642.70483398
Mo       0.00000000       0.00000000       1.06181818       0.00000000       0.00000000     642.70483398
2
Properties=species:S:1:pos:R:3:forces:R:3 energy=73.183631103368 pbc="F F F"
Mo       0.00000000       0.00000000       0.00000000       0.00000000       0.00000000    -486.41165161
Mo       0.00000000       0.00000000       1.12060606       0.00000000       0.00000000     486.41165161
2
Properties=species:S:1:pos:R:3:forces:R:3 energy=48.51278424632476 pbc="F F F"
Mo       0.00000000       0.00000000       0.00000000       0.00000000       0.00000000    -358.38854980
Mo       0.00000000       0.00000000       1.17939394       0.00000000       0.00000000     358.38854980
2
Properties=species:S:1:pos:R:3:forces:R:3 energy=30.38837428197525 pbc="F F F"
Mo       0.00000000       0.00000000       0.00000000       0.00000000       0.00000000    -263.25451660
Mo       0.00000000       0.00000000       1.23818182       0.00000000       0.00000000     263.25451660
2
Properties=species:S:1:pos:R:3:forces:R:3 energy=17.11054171789173 pbc="F F F"
Mo       0.00000000       0.00000000       0.00000000       0.00000000       0.00000000    -191.16189575
Mo       0.00000000       0.00000000       1.29696970       0.00000000       0.00000000     191.16189575
2
Properties=species:S:1:pos:R:3:forces:R:3 energy=7.646670103505541 pbc="F F F"
Mo       0.00000000       0.00000000       0.00000000       0.00000000       0.00000000    -133.12594604
Mo       0.00000000       0.00000000       1.35575758       0.00000000       0.00000000     133.12594604
2
Properties=species:S:1:pos:R:3:forces:R:3 energy=1.1412078965491952 pbc="F F F"
Mo       0.00000000       0.00000000       0.00000000       0.00000000       0.00000000     -91.15039062
Mo       0.00000000       0.00000000       1.41454545       0.00000000       0.00000000      91.15039062
2
Properties=species:S:1:pos:R:3:forces:R:3 energy=-3.393761640312178 pbc="F F F"
Mo       0.00000000       0.00000000       0.00000000       0.00000000       0.00000000     -65.36139679
Mo       0.00000000       0.00000000       1.47333333       0.00000000       0.00000000      65.36139679
2
Properties=species:S:1:pos:R:3:forces:R:3 energy=-6.72327818713098 pbc="F F F"
Mo       0.00000000       0.00000000       0.00000000       0.00000000       0.00000000     -48.80886078
Mo       0.00000000       0.00000000       1.53212121       0.00000000       0.00000000      48.80886078
2
Properties=species:S:1:pos:R:3:forces:R:3 energy=-9.19321482100434 pbc="F F F"
Mo       0.00000000       0.00000000       0.00000000       0.00000000       0.00000000     -35.53446579
Mo       0.00000000       0.00000000       1.59090909       0.00000000       0.00000000      35.53446579
2
Properties=species:S:1:pos:R:3:forces:R:3 energy=-10.936549257336027 pbc="F F F"
Mo       0.00000000       0.00000000       0.00000000       0.00000000       0.00000000     -24.11268425
Mo       0.00000000       0.00000000       1.64969697       0.00000000       0.00000000      24.11268425
2
Properties=species:S:1:pos:R:3:forces:R:3 energy=-12.072834122765855 pbc="F F F"
Mo       0.00000000       0.00000000       0.00000000       0.00000000       0.00000000     -14.94776821
Mo       0.00000000       0.00000000       1.70848485       0.00000000       0.00000000      14.94776821
2
Properties=species:S:1:pos:R:3:forces:R:3 energy=-12.741789991917075 pbc="F F F"
Mo       0.00000000       0.00000000       0.00000000       0.00000000       0.00000000      -8.20799065
Mo       0.00000000       0.00000000       1.76727273       0.00000000       0.00000000       8.20799065
2
Properties=species:S:1:pos:R:3:forces:R:3 energy=-13.081511424703473 pbc="F F F"
Mo       0.00000000       0.00000000       0.00000000       0.00000000       0.00000000      -3.68262053
Mo       0.00000000       0.00000000       1.82606061       0.00000000       0.00000000       3.68262053
2
Properties=species:S:1:pos:R:3:forces:R:3 energy=-13.208202271087954 pbc="F F F"
Mo       0.00000000       0.00000000       0.00000000       0.00000000       0.00000000      -0.86008126
Mo       0.00000000       0.00000000       1.88484848       0.00000000       0.00000000       0.86008126
2
Properties=species:S:1:pos:R:3:forces:R:3 energy=-13.204001248492988 pbc="F F F"
Mo       0.00000000       0.00000000       0.00000000       0.00000000       0.00000000       0.86971974
Mo       0.00000000       0.00000000       1.94363636       0.00000000       0.00000000      -0.86971974
2
Properties=species:S:1:pos:R:3:forces:R:3 energy=-13.116757052059983 pbc="F F F"
Mo       0.00000000       0.00000000       0.00000000       0.00000000       0.00000000       2.04006767
Mo       0.00000000       0.00000000       2.00242424       0.00000000       0.00000000      -2.04006767
2
Properties=species:S:1:pos:R:3:forces:R:3 energy=-12.968645781114905 pbc="F F F"
Mo       0.00000000       0.00000000       0.00000000       0.00000000       0.00000000       2.97178459
Mo       0.00000000       0.00000000       2.06121212       0.00000000       0.00000000      -2.97178459
2
Properties=species:S:1:pos:R:3:forces:R:3 energy=-12.770290619616791 pbc="F F F"
Mo       0.00000000       0.00000000       0.00000000       0.00000000       0.00000000       3.75010967
Mo       0.00000000       0.00000000       2.12000000       0.00000000       0.00000000      -3.75010967
2
Properties=species:S:1:pos:R:3:forces:R:3 energy=-12.53118590191731 pbc="F F F"
Mo       0.00000000       0.00000000       0.00000000       0.00000000       0.00000000       4.35183907
Mo       0.00000000       0.00000000       2.17878788       0.00000000       0.00000000      -4.35183907
2
Properties=species:S:1:pos:R:3:forces:R:3 energy=-12.262669750291192 pbc="F F F"
Mo       0.00000000       0.00000000       0.00000000       0.00000000       0.00000000       4.74759722
Mo       0.00000000       0.00000000       2.23757576       0.00000000       0.00000000      -4.74759722
2
Properties=species:S:1:pos:R:3:forces:R:3 energy=-11.977202051452014 pbc="F F F"
Mo       0.00000000       0.00000000       0.00000000       0.00000000       0.00000000       4.92866373
Mo       0.00000000       0.00000000       2.29636364       0.00000000       0.00000000      -4.92866373
2
Properties=species:S:1:pos:R:3:forces:R:3 energy=-11.687215652484252 pbc="F F F"
Mo       0.00000000       0.00000000       0.00000000       0.00000000       0.00000000       4.90419769
Mo       0.00000000       0.00000000       2.35515152       0.00000000       0.00000000      -4.90419769
2
Properties=species:S:1:pos:R:3:forces:R:3 energy=-11.404163614538902 pbc="F F F"
Mo       0.00000000       0.00000000       0.00000000       0.00000000       0.00000000       4.69773579
Mo       0.00000000       0.00000000       2.41393939       0.00000000       0.00000000      -4.69773579
2
Properties=species:S:1:pos:R:3:forces:R:3 energy=-11.137715844616665 pbc="F F F"
Mo       0.00000000       0.00000000       0.00000000       0.00000000       0.00000000       4.34667444
Mo       0.00000000       0.00000000       2.47272727       0.00000000       0.00000000      -4.34667444
2
Properties=species:S:1:pos:R:3:forces:R:3 energy=-10.894989533448328 pbc="F F F"
Mo       0.00000000       0.00000000       0.00000000       0.00000000       0.00000000       3.89928746
Mo       0.00000000       0.00000000       2.53151515       0.00000000       0.00000000      -3.89928746
2
Properties=species:S:1:pos:R:3:forces:R:3 energy=-10.680142635851103 pbc="F F F"
Mo       0.00000000       0.00000000       0.00000000       0.00000000       0.00000000       3.40631795
Mo       0.00000000       0.00000000       2.59030303       0.00000000       0.00000000      -3.40631795
2
Properties=species:S:1:pos:R:3:forces:R:3 energy=-10.494524718046252 pbc="F F F"
Mo       0.00000000       0.00000000       0.00000000       0.00000000       0.00000000       2.91104507
Mo       0.00000000       0.00000000       2.64909091       0.00000000       0.00000000      -2.91104507
2
Properties=species:S:1:pos:R:3:forces:R:3 energy=-10.337305491750627 pbc="F F F"
Mo       0.00000000       0.00000000       0.00000000       0.00000000       0.00000000       2.44443583
Mo       0.00000000       0.00000000       2.70787879       0.00000000       0.00000000      -2.44443583
2
Properties=species:S:1:pos:R:3:forces:R:3 energy=-10.206151924539833 pbc="F F F"
Mo       0.00000000       0.00000000       0.00000000       0.00000000       0.00000000       2.02698755
Mo       0.00000000       0.00000000       2.76666667       0.00000000       0.00000000      -2.02698755
2
Properties=species:S:1:pos:R:3:forces:R:3 energy=-10.097736110067986 pbc="F F F"
Mo       0.00000000       0.00000000       0.00000000       0.00000000       0.00000000       1.67291594
Mo       0.00000000       0.00000000       2.82545455       0.00000000       0.00000000      -1.67291594
2
Properties=species:S:1:pos:R:3:forces:R:3 energy=-10.008015204546313 pbc="F F F"
Mo       0.00000000       0.00000000       0.00000000       0.00000000       0.00000000       1.39226007
Mo       0.00000000       0.00000000       2.88424242       0.00000000       0.00000000      -1.39226007
2
Properties=species:S:1:pos:R:3:forces:R:3 energy=-9.932514802764878 pbc="F F F"
Mo       0.00000000       0.00000000       0.00000000       0.00000000       0.00000000       1.18902314
Mo       0.00000000       0.00000000       2.94303030       0.00000000       0.00000000      -1.18902314
2
Properties=species:S:1:pos:R:3:forces:R:3 energy=-9.866850171217598 pbc="F F F"
Mo       0.00000000       0.00000000       0.00000000       0.00000000       0.00000000       1.05487239
Mo       0.00000000       0.00000000       3.00181818       0.00000000       0.00000000      -1.05487239
2
Properties=species:S:1:pos:R:3:forces:R:3 energy=-9.807593023503074 pbc="F F F"
Mo       0.00000000       0.00000000       0.00000000       0.00000000       0.00000000       0.96625441
Mo       0.00000000       0.00000000       3.06060606       0.00000000       0.00000000      -0.96625441
2
Properties=species:S:1:pos:R:3:forces:R:3 energy=-9.752891244671117 pbc="F F F"
Mo       0.00000000       0.00000000       0.00000000       0.00000000       0.00000000       0.89595520
Mo       0.00000000       0.00000000       3.11939394       0.00000000       0.00000000      -0.89595520
2
Properties=species:S:1:pos:R:3:forces:R:3 energy=-9.702232498684726 pbc="F F F"
Mo       0.00000000       0.00000000       0.00000000       0.00000000       0.00000000       0.82694781
Mo       0.00000000       0.00000000       3.17818182       0.00000000       0.00000000      -0.82694781
2
Properties=species:S:1:pos:R:3:forces:R:3 energy=-9.655752046462371 pbc="F F F"
Mo       0.00000000       0.00000000       0.00000000       0.00000000       0.00000000       0.75356263
Mo       0.00000000       0.00000000       3.23696970       0.00000000       0.00000000      -0.75356263
2
Properties=species:S:1:pos:R:3:forces:R:3 energy=-9.613705188414878 pbc="F F F"
Mo       0.00000000       0.00000000       0.00000000       0.00000000       0.00000000       0.67651391
Mo       0.00000000       0.00000000       3.29575758       0.00000000       0.00000000      -0.67651391
2
Properties=species:S:1:pos:R:3:forces:R:3 energy=-9.57621652803666 pbc="F F F"
Mo       0.00000000       0.00000000       0.00000000       0.00000000       0.00000000       0.59915686
Mo       0.00000000       0.00000000       3.35454545       0.00000000       0.00000000      -0.59915686
2
Properties=species:S:1:pos:R:3:forces:R:3 energy=-9.543189837788605 pbc="F F F"
Mo       0.00000000       0.00000000       0.00000000       0.00000000       0.00000000       0.52532190
Mo       0.00000000       0.00000000       3.41333333       0.00000000       0.00000000      -0.52532190
2
Properties=species:S:1:pos:R:3:forces:R:3 energy=-9.514320311405703 pbc="F F F"
Mo       0.00000000       0.00000000       0.00000000       0.00000000       0.00000000       0.45812300
Mo       0.00000000       0.00000000       3.47212121       0.00000000       0.00000000      -0.45812300
2
Properties=species:S:1:pos:R:3:forces:R:3 energy=-9.489154538443108 pbc="F F F"
Mo       0.00000000       0.00000000       0.00000000       0.00000000       0.00000000       0.39960438
Mo       0.00000000       0.00000000       3.53090909       0.00000000       0.00000000      -0.39960438
2
Properties=species:S:1:pos:R:3:forces:R:3 energy=-9.467143773022261 pbc="F F F"
Mo       0.00000000       0.00000000       0.00000000       0.00000000       0.00000000       0.35090730
Mo       0.00000000       0.00000000       3.58969697       0.00000000       0.00000000      -0.35090730
2
Properties=species:S:1:pos:R:3:forces:R:3 energy=-9.447694193145951 pbc="F F F"
Mo       0.00000000       0.00000000       0.00000000       0.00000000       0.00000000       0.31248277
Mo       0.00000000       0.00000000       3.64848485       0.00000000       0.00000000      -0.31248277
2
Properties=species:S:1:pos:R:3:forces:R:3 energy=-9.430206641245379 pbc="F F F"
Mo       0.00000000       0.00000000       0.00000000       0.00000000       0.00000000       0.28408587
Mo       0.00000000       0.00000000       3.70727273       0.00000000       0.00000000      -0.28408587
2
Properties=species:S:1:pos:R:3:forces:R:3 energy=-9.414115598114229 pbc="F F F"
Mo       0.00000000       0.00000000       0.00000000       0.00000000       0.00000000       0.26468584
Mo       0.00000000       0.00000000       3.76606061       0.00000000       0.00000000      -0.26468584
2
Properties=species:S:1:pos:R:3:forces:R:3 energy=-9.398944239265587 pbc="F F F"
Mo       0.00000000       0.00000000       0.00000000       0.00000000       0.00000000       0.25249198
Mo       0.00000000       0.00000000       3.82484848       0.00000000       0.00000000      -0.25249198
2
Properties=species:S:1:pos:R:3:forces:R:3 energy=-9.384332493960377 pbc="F F F"
Mo       0.00000000       0.00000000       0.00000000       0.00000000       0.00000000       0.24520493
Mo       0.00000000       0.00000000       3.88363636       0.00000000       0.00000000      -0.24520493
2
Properties=species:S:1:pos:R:3:forces:R:3 energy=-9.370065246627941 pbc="F F F"
Mo       0.00000000       0.00000000       0.00000000       0.00000000       0.00000000       0.24042712
Mo       0.00000000       0.00000000       3.94242424       0.00000000       0.00000000      -0.24042712
2
Properties=species:S:1:pos:R:3:forces:R:3 energy=-9.3560568373225 pbc="F F F"
Mo       0.00000000       0.00000000       0.00000000       0.00000000       0.00000000       0.23604815
Mo       0.00000000       0.00000000       4.00121212       0.00000000       0.00000000      -0.23604815
2
Properties=species:S:1:pos:R:3:forces:R:3 energy=-9.342334937958789 pbc="F F F"
Mo       0.00000000       0.00000000       0.00000000       0.00000000       0.00000000       0.23050928
Mo       0.00000000       0.00000000       4.06000000       0.00000000       0.00000000      -0.23050928
2
Properties=species:S:1:pos:R:3:forces:R:3 energy=-9.3289959450311 pbc="F F F"
Mo       0.00000000       0.00000000       0.00000000       0.00000000       0.00000000       0.22290964
Mo       0.00000000       0.00000000       4.11878788       0.00000000       0.00000000      -0.22290964
2
Properties=species:S:1:pos:R:3:forces:R:3 energy=-9.316172231568654 pbc="F F F"
Mo       0.00000000       0.00000000       0.00000000       0.00000000       0.00000000       0.21296503
Mo       0.00000000       0.00000000       4.17757576       0.00000000       0.00000000      -0.21296503
2
Properties=species:S:1:pos:R:3:forces:R:3 energy=-9.303997985922617 pbc="F F F"
Mo       0.00000000       0.00000000       0.00000000       0.00000000       0.00000000       0.20089161
Mo       0.00000000       0.00000000       4.23636364       0.00000000       0.00000000      -0.20089161
2
Properties=species:S:1:pos:R:3:forces:R:3 energy=-9.292583323175378 pbc="F F F"
Mo       0.00000000       0.00000000       0.00000000       0.00000000       0.00000000       0.18721411
Mo       0.00000000       0.00000000       4.29515152       0.00000000       0.00000000      -0.18721411
2
Properties=species:S:1:pos:R:3:forces:R:3 energy=-9.282004748397386 pbc="F F F"
Mo       0.00000000       0.00000000       0.00000000       0.00000000       0.00000000       0.17257479
Mo       0.00000000       0.00000000       4.35393939       0.00000000       0.00000000      -0.17257479
2
Properties=species:S:1:pos:R:3:forces:R:3 energy=-9.27230013484979 pbc="F F F"
Mo       0.00000000       0.00000000       0.00000000       0.00000000       0.00000000       0.15755937
Mo       0.00000000       0.00000000       4.41272727       0.00000000       0.00000000      -0.15755937
2
Properties=species:S:1:pos:R:3:forces:R:3 energy=-9.26347828607019 pbc="F F F"
Mo       0.00000000       0.00000000       0.00000000       0.00000000       0.00000000       0.14259076
Mo       0.00000000       0.00000000       4.47151515       0.00000000       0.00000000      -0.14259076
2
Properties=species:S:1:pos:R:3:forces:R:3 energy=-9.25552919820692 pbc="F F F"
Mo       0.00000000       0.00000000       0.00000000       0.00000000       0.00000000       0.12789649
Mo       0.00000000       0.00000000       4.53030303       0.00000000       0.00000000      -0.12789649
2
Properties=species:S:1:pos:R:3:forces:R:3 energy=-9.248434452234033 pbc="F F F"
Mo       0.00000000       0.00000000       0.00000000       0.00000000       0.00000000       0.11354531
Mo       0.00000000       0.00000000       4.58909091       0.00000000       0.00000000      -0.11354531
2
Properties=species:S:1:pos:R:3:forces:R:3 energy=-9.242172793445219 pbc="F F F"
Mo       0.00000000       0.00000000       0.00000000       0.00000000       0.00000000       0.09952641
Mo       0.00000000       0.00000000       4.64787879       0.00000000       0.00000000      -0.09952641
2
Properties=species:S:1:pos:R:3:forces:R:3 energy=-9.236726591762098 pbc="F F F"
Mo       0.00000000       0.00000000       0.00000000       0.00000000       0.00000000       0.08582193
Mo       0.00000000       0.00000000       4.70666667       0.00000000       0.00000000      -0.08582193
2
Properties=species:S:1:pos:R:3:forces:R:3 energy=-9.232076069003176 pbc="F F F"
Mo       0.00000000       0.00000000       0.00000000       0.00000000       0.00000000       0.07246485
Mo       0.00000000       0.00000000       4.76545455       0.00000000       0.00000000      -0.07246485
2
Properties=species:S:1:pos:R:3:forces:R:3 energy=-9.228197229976281 pbc="F F F"
Mo       0.00000000       0.00000000       0.00000000       0.00000000       0.00000000       0.05955122
Mo       0.00000000       0.00000000       4.82424242       0.00000000       0.00000000      -0.05955122
2
Properties=species:S:1:pos:R:3:forces:R:3 energy=-9.225061776947364 pbc="F F F"
Mo       0.00000000       0.00000000       0.00000000       0.00000000       0.00000000       0.04725055
Mo       0.00000000       0.00000000       4.88303030       0.00000000       0.00000000      -0.04725055
2
Properties=species:S:1:pos:R:3:forces:R:3 energy=-9.222625513493242 pbc="F F F"
Mo       0.00000000       0.00000000       0.00000000       0.00000000       0.00000000       0.03578683
Mo       0.00000000       0.00000000       4.94181818       0.00000000       0.00000000      -0.03578683
2
Properties=species:S:1:pos:R:3:forces:R:3 energy=-9.220832146527567 pbc="F F F"
Mo       0.00000000       0.00000000       0.00000000       0.00000000       0.00000000       0.02545518
Mo       0.00000000       0.00000000       5.00060606       0.00000000       0.00000000      -0.02545518
2
Properties=species:S:1:pos:R:3:forces:R:3 energy=-9.219604706399814 pbc="F F F"
Mo       0.00000000       0.00000000       0.00000000       0.00000000       0.00000000       0.01658444
Mo       0.00000000       0.00000000       5.05939394       0.00000000       0.00000000      -0.01658444
2
Properties=species:S:1:pos:R:3:forces:R:3 energy=-9.218847327531012 pbc="F F F"
Mo       0.00000000       0.00000000       0.00000000       0.00000000       0.00000000       0.00948667
Mo       0.00000000       0.00000000       5.11818182       0.00000000       0.00000000      -0.00948667
2
Properties=species:S:1:pos:R:3:forces:R:3 energy=-9.218450057967027 pbc="F F F"
Mo       0.00000000       0.00000000       0.00000000       0.00000000       0.00000000       0.00435446
Mo       0.00000000       0.00000000       5.17696970       0.00000000       0.00000000      -0.00435446
2
Properties=species:S:1:pos:R:3:forces:R:3 energy=-9.218295617462148 pbc="F F F"
Mo       0.00000000       0.00000000       0.00000000       0.00000000       0.00000000       0.00121901
Mo       0.00000000       0.00000000       5.23575758       0.00000000       0.00000000      -0.00121901
2
Properties=species:S:1:pos:R:3:forces:R:3 energy=-9.218268810677184 pbc="F F F"
Mo       0.00000000       0.00000000       0.00000000       0.00000000       0.00000000       0.00003095
Mo       0.00000000       0.00000000       5.29454545       0.00000000       0.00000000      -0.00003095
2
Properties=species:S:1:pos:R:3:forces:R:3 energy=-9.218256742591375 pbc="F F F"
Mo       0.00000000       0.00000000       0.00000000       0.00000000       0.00000000       0.00060787
Mo       0.00000000       0.00000000       5.35333333       0.00000000       0.00000000      -0.00060787
2
Properties=species:S:1:pos:R:3:forces:R:3 energy=-9.218185942108642 pbc="F F F"
Mo       0.00000000       0.00000000       0.00000000       0.00000000       0.00000000       0.00164787
Mo       0.00000000       0.00000000       5.41212121       0.00000000       0.00000000      -0.00164787
2
Properties=species:S:1:pos:R:3:forces:R:3 energy=-9.218113997155339 pbc="F F F"
Mo       0.00000000       0.00000000       0.00000000       0.00000000       0.00000000       0.00020008
Mo       0.00000000       0.00000000       5.47090909       0.00000000       0.00000000      -0.00020008
2
Properties=species:S:1:pos:R:3:forces:R:3 energy=-9.218207683527414 pbc="F F F"
Mo       0.00000000       0.00000000       0.00000000       0.00000000       0.00000000      -0.00324520
Mo       0.00000000       0.00000000       5.52969697       0.00000000       0.00000000       0.00324520
2
Properties=species:S:1:pos:R:3:forces:R:3 energy=-9.218420714838318 pbc="F F F"
Mo       0.00000000       0.00000000       0.00000000       0.00000000       0.00000000      -0.00314594
Mo       0.00000000       0.00000000       5.58848485       0.00000000       0.00000000       0.00314594
2
Properties=species:S:1:pos:R:3:forces:R:3 energy=-9.218507097127244 pbc="F F F"
Mo       0.00000000       0.00000000       0.00000000       0.00000000       0.00000000       0.00023049
Mo       0.00000000       0.00000000       5.64727273       0.00000000       0.00000000      -0.00023049
2
Properties=species:S:1:pos:R:3:forces:R:3 energy=-9.218468478141258 pbc="F F F"
Mo       0.00000000       0.00000000       0.00000000       0.00000000       0.00000000      -0.00020858
Mo       0.00000000       0.00000000       5.70606061       0.00000000       0.00000000       0.00020858
2
Properties=species:S:1:pos:R:3:forces:R:3 energy=-9.218712539635197 pbc="F F F"
Mo       0.00000000       0.00000000       0.00000000       0.00000000       0.00000000      -0.00902433
Mo       0.00000000       0.00000000       5.76484848       0.00000000       0.00000000       0.00902433
2
Properties=species:S:1:pos:R:3:forces:R:3 energy=-9.219484639157319 pbc="F F F"
Mo       0.00000000       0.00000000       0.00000000       0.00000000       0.00000000      -0.01535153
Mo       0.00000000       0.00000000       5.82363636       0.00000000       0.00000000       0.01535153
2
Properties=species:S:1:pos:R:3:forces:R:3 energy=-9.22019547757578 pbc="F F F"
Mo       0.00000000       0.00000000       0.00000000       0.00000000       0.00000000      -0.00666683
Mo       0.00000000       0.00000000       5.88242424       0.00000000       0.00000000       0.00666683
2
Properties=species:S:1:pos:R:3:forces:R:3 energy=-9.220142189319533 pbc="F F F"
Mo       0.00000000       0.00000000       0.00000000       0.00000000       0.00000000       0.00824931
Mo       0.00000000       0.00000000       5.94121212       0.00000000       0.00000000      -0.00824931
2
Properties=species:S:1:pos:R:3:forces:R:3 energy=-9.219410488187338 pbc="F F F"
Mo       0.00000000       0.00000000       0.00000000       0.00000000       0.00000000       0.01437535
Mo       0.00000000       0.00000000       6.00000000       0.00000000       0.00000000      -0.01437535
