2
Properties=species:S:1:pos:R:3:forces:R:3 energy=5958.060517743744 pbc="F F F"
Ni       0.00000000       0.00000000       0.00000000       0.00000000       0.00000000  -59243.23046875
Ni       0.00000000       0.00000000       0.18000000       0.00000000       0.00000000   59243.23046875
2
Properties=species:S:1:pos:R:3:forces:R:3 energy=3797.5048536812437 pbc="F F F"
Ni       0.00000000       0.00000000       0.00000000       0.00000000       0.00000000  -21782.44335938
Ni       0.00000000       0.00000000       0.23878788       0.00000000       0.00000000   21782.44335938
2
Properties=species:S:1:pos:R:3:forces:R:3 energy=2927.7990431343687 pbc="F F F"
Ni       0.00000000       0.00000000       0.00000000       0.00000000       0.00000000   -9835.18066406
Ni       0.00000000       0.00000000       0.29757576       0.00000000       0.00000000    9835.18066406
2
Properties=species:S:1:pos:R:3:forces:R:3 energy=2505.5988478250365 pbc="F F F"
Ni       0.00000000       0.00000000       0.00000000       0.00000000       0.00000000   -5283.58789062
Ni       0.00000000       0.00000000       0.35636364       0.00000000       0.00000000    5283.58789062
2
Properties=species:S:1:pos:R:3:forces:R:3 energy=2245.383515800122 pbc="F F F"
Ni       0.00000000       0.00000000       0.00000000       0.00000000       0.00000000   -3870.51123047
Ni       0.00000000       0.00000000       0.41515152       0.00000000       0.00000000    3870.51123047
2
Properties=species:S:1:pos:R:3:forces:R:3 energy=2024.8218703081488 pbc="F F F"
Ni       0.00000000       0.00000000       0.00000000       0.00000000       0.00000000   -3793.77172852
Ni       0.00000000       0.00000000       0.47393939       0.00000000       0.00000000    3793.77172852
2
Properties=species:S:1:pos:R:3:forces:R:3 energy=1785.2560744382217 pbc="F F F"
Ni       0.00000000       0.00000000       0.00000000       0.00000000       0.00000000   -4440.26367188
Ni       0.00000000       0.00000000       0.53272727       0.00000000       0.00000000    4440.26367188
2
Properties=species:S:1:pos:R:3:forces:R:3 energy=1497.4446731185517 pbc="F F F"
Ni       0.00000000       0.00000000       0.00000000       0.00000000       0.00000000   -5364.21435547
Ni       0.00000000       0.00000000       0.59151515       0.00000000       0.00000000    5364.21435547
2
Properties=species:S:1:pos:R:3:forces:R:3 energy=1151.0263382431453 pbc="F F F"
Ni       0.00000000       0.00000000       0.00000000       0.00000000       0.00000000   -6187.69873047
Ni       0.00000000       0.00000000       0.65030303       0.00000000       0.00000000    6187.69873047
2
Properties=species:S:1:pos:R:3:forces:R:3 energy=800.807100091776 pbc="F F F"
Ni       0.00000000       0.00000000       0.00000000       0.00000000       0.00000000   -5412.80859375
Ni       0.00000000       0.00000000       0.70909091       0.00000000       0.00000000    5412.80859375
2
Properties=species:S:1:pos:R:3:forces:R:3 energy=531.3345661084935 pbc="F F F"
Ni       0.00000000       0.00000000       0.00000000       0.00000000       0.00000000   -3793.98535156
Ni       0.00000000       0.00000000       0.76787879       0.00000000       0.00000000    3793.98535156
2
Properties=species:S:1:pos:R:3:forces:R:3 energy=344.418031976105 pbc="F F F"
Ni       0.00000000       0.00000000       0.00000000       0.00000000       0.00000000   -2667.88989258
Ni       0.00000000       0.00000000       0.82666667       0.00000000       0.00000000    2667.88989258
2
Properties=species:S:1:pos:R:3:forces:R:3 energy=216.94784806175 pbc="F F F"
Ni       0.00000000       0.00000000       0.00000000       0.00000000       0.00000000   -1635.21228027
Ni       0.00000000       0.00000000       0.88545455       0.00000000       0.00000000    1635.21228027
2
Properties=species:S:1:pos:R:3:forces:R:3 energy=141.458041515723 pbc="F F F"
Ni       0.00000000       0.00000000       0.00000000       0.00000000       0.00000000   -1020.04083252
Ni       0.00000000       0.00000000       0.94424242       0.00000000       0.00000000    1020.04083252
2
Properties=species:S:1:pos:R:3:forces:R:3 energy=93.69059389188907 pbc="F F F"
Ni       0.00000000       0.00000000       0.00000000       0.00000000       0.00000000    -632.73895264
Ni       0.00000000       0.00000000       1.00303030       0.00000000       0.00000000     632.73895264
2
Properties=species:S:1:pos:R:3:forces:R:3 energy=64.18101245258516 pbc="F F F"
Ni       0.00000000       0.00000000       0.00000000       0.00000000       0.00000000    -393.18130493
Ni       0.00000000       0.00000000       1.06181818       0.00000000       0.00000000     393.18130493
2
Properties=species:S:1:pos:R:3:forces:R:3 energy=45.23938638199937 pbc="F F F"
Ni       0.00000000       0.00000000       0.00000000       0.00000000       0.00000000    -265.17462158
Ni       0.00000000       0.00000000       1.12060606       0.00000000       0.00000000     265.17462158
2
Properties=species:S:1:pos:R:3:forces:R:3 energy=32.00845412061931 pbc="F F F"
Ni       0.00000000       0.00000000       0.00000000       0.00000000       0.00000000    -189.90278625
Ni       0.00000000       0.00000000       1.17939394       0.00000000       0.00000000     189.90278625
2
Properties=species:S:1:pos:R:3:forces:R:3 energy=22.45724042485062 pbc="F F F"
Ni       0.00000000       0.00000000       0.00000000       0.00000000       0.00000000    -138.24761963
Ni       0.00000000       0.00000000       1.23818182       0.00000000       0.00000000     138.24761963
2
Properties=species:S:1:pos:R:3:forces:R:3 energy=15.445982536652558 pbc="F F F"
Ni       0.00000000       0.00000000       0.00000000       0.00000000       0.00000000    -102.35151672
Ni       0.00000000       0.00000000       1.29696970       0.00000000       0.00000000     102.35151672
2
Properties=species:S:1:pos:R:3:forces:R:3 energy=10.228864370971015 pbc="F F F"
Ni       0.00000000       0.00000000       0.00000000       0.00000000       0.00000000     -76.44902039
Ni       0.00000000       0.00000000       1.35575758       0.00000000       0.00000000      76.44902039
2
Properties=species:S:1:pos:R:3:forces:R:3 energy=6.331514144423667 pbc="F F F"
Ni       0.00000000       0.00000000       0.00000000       0.00000000       0.00000000     -57.03382874
Ni       0.00000000       0.00000000       1.41454545       0.00000000       0.00000000      57.03382874
2
Properties=species:S:1:pos:R:3:forces:R:3 energy=3.4320520914739854 pbc="F F F"
Ni       0.00000000       0.00000000       0.00000000       0.00000000       0.00000000     -42.28073502
Ni       0.00000000       0.00000000       1.47333333       0.00000000       0.00000000      42.28073502
2
Properties=species:S:1:pos:R:3:forces:R:3 energy=1.2915977655475337 pbc="F F F"
Ni       0.00000000       0.00000000       0.00000000       0.00000000       0.00000000     -31.04464531
Ni       0.00000000       0.00000000       1.53212121       0.00000000       0.00000000      31.04464531
2
Properties=species:S:1:pos:R:3:forces:R:3 energy=-0.27061439398228454 pbc="F F F"
Ni       0.00000000       0.00000000       0.00000000       0.00000000       0.00000000     -22.50249672
Ni       0.00000000       0.00000000       1.59090909       0.00000000       0.00000000      22.50249672
2
Properties=species:S:1:pos:R:3:forces:R:3 energy=-1.3964941636578585 pbc="F F F"
Ni       0.00000000       0.00000000       0.00000000       0.00000000       0.00000000     -16.12222290
Ni       0.00000000       0.00000000       1.64969697       0.00000000       0.00000000      16.12222290
2
Properties=species:S:1:pos:R:3:forces:R:3 energy=-2.199534184748104 pbc="F F F"
Ni       0.00000000       0.00000000       0.00000000       0.00000000       0.00000000     -11.44468594
Ni       0.00000000       0.00000000       1.70848485       0.00000000       0.00000000      11.44468594
2
Properties=species:S:1:pos:R:3:forces:R:3 energy=-2.767119351138137 pbc="F F F"
Ni       0.00000000       0.00000000       0.00000000       0.00000000       0.00000000      -8.04477406
Ni       0.00000000       0.00000000       1.76727273       0.00000000       0.00000000       8.04477406
2
Properties=species:S:1:pos:R:3:forces:R:3 energy=-3.163079122584531 pbc="F F F"
Ni       0.00000000       0.00000000       0.00000000       0.00000000       0.00000000      -5.54970407
Ni       0.00000000       0.00000000       1.82606061       0.00000000       0.00000000       5.54970407
2
Properties=species:S:1:pos:R:3:forces:R:3 energy=-3.431628452475841 pbc="F F F"
Ni       0.00000000       0.00000000       0.00000000       0.00000000       0.00000000      -3.67043090
Ni       0.00000000       0.00000000       1.88484848       0.00000000       0.00000000       3.67043090
2
Properties=species:S:1:pos:R:3:forces:R:3 energy=-3.602981442521455 pbc="F F F"
Ni       0.00000000       0.00000000       0.00000000       0.00000000       0.00000000      -2.22011089
Ni       0.00000000       0.00000000       1.94363636       0.00000000       0.00000000       2.22011089
2
Properties=species:S:1:pos:R:3:forces:R:3 energy=-3.6990484439758013 pbc="F F F"
Ni       0.00000000       0.00000000       0.00000000       0.00000000       0.00000000      -1.09748375
Ni       0.00000000       0.00000000       2.00242424       0.00000000       0.00000000       1.09748375
2
Properties=species:S:1:pos:R:3:forces:R:3 energy=-3.7373916942691774 pbc="F F F"
Ni       0.00000000       0.00000000       0.00000000       0.00000000       0.00000000      -0.24946757
Ni       0.00000000       0.00000000       2.06121212       0.00000000       0.00000000       0.24946757
2
Properties=species:S:1:pos:R:3:forces:R:3 energy=-3.7330182811728165 pbc="F F F"
Ni       0.00000000       0.00000000       0.00000000       0.00000000       0.00000000       0.36195591
Ni       0.00000000       0.00000000       2.12000000       0.00000000       0.00000000      -0.36195591
2
Properties=species:S:1:pos:R:3:forces:R:3 energy=-3.6987224793788243 pbc="F F F"
Ni       0.00000000       0.00000000       0.00000000       0.00000000       0.00000000       0.77500349
Ni       0.00000000       0.00000000       2.17878788       0.00000000       0.00000000      -0.77500349
2
Properties=species:S:1:pos:R:3:forces:R:3 energy=-3.6450302618982726 pbc="F F F"
Ni       0.00000000       0.00000000       0.00000000       0.00000000       0.00000000       1.02798390
Ni       0.00000000       0.00000000       2.23757576       0.00000000       0.00000000      -1.02798390
2
Properties=species:S:1:pos:R:3:forces:R:3 energy=-3.5803090158556157 pbc="F F F"
Ni       0.00000000       0.00000000       0.00000000       0.00000000       0.00000000       1.15596247
Ni       0.00000000       0.00000000       2.29636364       0.00000000       0.00000000      -1.15596247
2
Properties=species:S:1:pos:R:3:forces:R:3 energy=-3.5107254861132478 pbc="F F F"
Ni       0.00000000       0.00000000       0.00000000       0.00000000       0.00000000       1.20348239
Ni       0.00000000       0.00000000       2.35515152       0.00000000       0.00000000      -1.20348239
2
Properties=species:S:1:pos:R:3:forces:R:3 energy=-3.438780883518211 pbc="F F F"
Ni       0.00000000       0.00000000       0.00000000       0.00000000       0.00000000       1.25201547
Ni       0.00000000       0.00000000       2.41393939       0.00000000       0.00000000      -1.25201547
2
Properties=species:S:1:pos:R:3:forces:R:3 energy=-3.3623977693298186 pbc="F F F"
Ni       0.00000000       0.00000000       0.00000000       0.00000000       0.00000000       1.35191619
Ni       0.00000000       0.00000000       2.47272727       0.00000000       0.00000000      -1.35191619
2
Properties=species:S:1:pos:R:3:forces:R:3 energy=-3.280147608921397 pbc="F F F"
Ni       0.00000000       0.00000000       0.00000000       0.00000000       0.00000000       1.43735170
Ni       0.00000000       0.00000000       2.53151515       0.00000000       0.00000000      -1.43735170
2
Properties=species:S:1:pos:R:3:forces:R:3 energy=-3.1946074318226456 pbc="F F F"
Ni       0.00000000       0.00000000       0.00000000       0.00000000       0.00000000       1.46350193
Ni       0.00000000       0.00000000       2.59030303       0.00000000       0.00000000      -1.46350193
2
Properties=species:S:1:pos:R:3:forces:R:3 energy=-3.1089226494048074 pbc="F F F"
Ni       0.00000000       0.00000000       0.00000000       0.00000000       0.00000000       1.44621313
Ni       0.00000000       0.00000000       2.64909091       0.00000000       0.00000000      -1.44621313
2
Properties=species:S:1:pos:R:3:forces:R:3 energy=-3.025046903485819 pbc="F F F"
Ni       0.00000000       0.00000000       0.00000000       0.00000000       0.00000000       1.40412688
Ni       0.00000000       0.00000000       2.70787879       0.00000000       0.00000000      -1.40412688
2
Properties=species:S:1:pos:R:3:forces:R:3 energy=-2.944132639957565 pbc="F F F"
Ni       0.00000000       0.00000000       0.00000000       0.00000000       0.00000000       1.34656394
Ni       0.00000000       0.00000000       2.76666667       0.00000000       0.00000000      -1.34656394
2
Properties=species:S:1:pos:R:3:forces:R:3 energy=-2.866917746542866 pbc="F F F"
Ni       0.00000000       0.00000000       0.00000000       0.00000000       0.00000000       1.27907312
Ni       0.00000000       0.00000000       2.82545455       0.00000000       0.00000000      -1.27907312
2
Properties=species:S:1:pos:R:3:forces:R:3 energy=-2.7938469153639596 pbc="F F F"
Ni       0.00000000       0.00000000       0.00000000       0.00000000       0.00000000       1.20633173
Ni       0.00000000       0.00000000       2.88424242       0.00000000       0.00000000      -1.20633173
2
Properties=species:S:1:pos:R:3:forces:R:3 energy=-2.725104034181816 pbc="F F F"
Ni       0.00000000       0.00000000       0.00000000       0.00000000       0.00000000       1.13246286
Ni       0.00000000       0.00000000       2.94303030       0.00000000       0.00000000      -1.13246286
2
Properties=species:S:1:pos:R:3:forces:R:3 energy=-2.660656272908142 pbc="F F F"
Ni       0.00000000       0.00000000       0.00000000       0.00000000       0.00000000       1.06060863
Ni       0.00000000       0.00000000       3.00181818       0.00000000       0.00000000      -1.06060863
2
Properties=species:S:1:pos:R:3:forces:R:3 energy=-2.6003256688881837 pbc="F F F"
Ni       0.00000000       0.00000000       0.00000000       0.00000000       0.00000000       0.99262983
Ni       0.00000000       0.00000000       3.06060606       0.00000000       0.00000000      -0.99262983
2
Properties=species:S:1:pos:R:3:forces:R:3 energy=-2.5438582396184133 pbc="F F F"
Ni       0.00000000       0.00000000       0.00000000       0.00000000       0.00000000       0.92918247
Ni       0.00000000       0.00000000       3.11939394       0.00000000       0.00000000      -0.92918247
2
Properties=species:S:1:pos:R:3:forces:R:3 energy=-2.490990090385291 pbc="F F F"
Ni       0.00000000       0.00000000       0.00000000       0.00000000       0.00000000       0.87008411
Ni       0.00000000       0.00000000       3.17818182       0.00000000       0.00000000      -0.87008411
2
Properties=species:S:1:pos:R:3:forces:R:3 energy=-2.441483592868747 pbc="F F F"
Ni       0.00000000       0.00000000       0.00000000       0.00000000       0.00000000       0.81475240
Ni       0.00000000       0.00000000       3.23696970       0.00000000       0.00000000      -0.81475240
2
Properties=species:S:1:pos:R:3:forces:R:3 energy=-2.3951341115475526 pbc="F F F"
Ni       0.00000000       0.00000000       0.00000000       0.00000000       0.00000000       0.76254040
Ni       0.00000000       0.00000000       3.29575758       0.00000000       0.00000000      -0.76254040
2
Properties=species:S:1:pos:R:3:forces:R:3 energy=-2.3517761669044144 pbc="F F F"
Ni       0.00000000       0.00000000       0.00000000       0.00000000       0.00000000       0.71294069
Ni       0.00000000       0.00000000       3.35454545       0.00000000       0.00000000      -0.71294069
2
Properties=species:S:1:pos:R:3:forces:R:3 energy=-2.311264902133247 pbc="F F F"
Ni       0.00000000       0.00000000       0.00000000       0.00000000       0.00000000       0.66563499
Ni       0.00000000       0.00000000       3.41333333       0.00000000       0.00000000      -0.66563499
2
Properties=species:S:1:pos:R:3:forces:R:3 energy=-2.273471260082697 pbc="F F F"
Ni       0.00000000       0.00000000       0.00000000       0.00000000       0.00000000       0.62047625
Ni       0.00000000       0.00000000       3.47212121       0.00000000       0.00000000      -0.62047625
2
Properties=species:S:1:pos:R:3:forces:R:3 energy=-2.2382705011504798 pbc="F F F"
Ni       0.00000000       0.00000000       0.00000000       0.00000000       0.00000000       0.57743824
Ni       0.00000000       0.00000000       3.53090909       0.00000000       0.00000000      -0.57743824
2
Properties=species:S:1:pos:R:3:forces:R:3 energy=-2.2055366966493883 pbc="F F F"
Ni       0.00000000       0.00000000       0.00000000       0.00000000       0.00000000       0.53654391
Ni       0.00000000       0.00000000       3.58969697       0.00000000       0.00000000      -0.53654391
2
Properties=species:S:1:pos:R:3:forces:R:3 energy=-2.17514347574125 pbc="F F F"
Ni       0.00000000       0.00000000       0.00000000       0.00000000       0.00000000       0.49781388
Ni       0.00000000       0.00000000       3.64848485       0.00000000       0.00000000      -0.49781388
2
Properties=species:S:1:pos:R:3:forces:R:3 energy=-2.146964152149815 pbc="F F F"
Ni       0.00000000       0.00000000       0.00000000       0.00000000       0.00000000       0.46122044
Ni       0.00000000       0.00000000       3.70727273       0.00000000       0.00000000      -0.46122044
2
Properties=species:S:1:pos:R:3:forces:R:3 energy=-2.1208747158963286 pbc="F F F"
Ni       0.00000000       0.00000000       0.00000000       0.00000000       0.00000000       0.42666969
Ni       0.00000000       0.00000000       3.76606061       0.00000000       0.00000000      -0.42666969
2
Properties=species:S:1:pos:R:3:forces:R:3 energy=-2.09676091216508 pbc="F F F"
Ni       0.00000000       0.00000000       0.00000000       0.00000000       0.00000000       0.39400959
Ni       0.00000000       0.00000000       3.82484848       0.00000000       0.00000000      -0.39400959
2
Properties=species:S:1:pos:R:3:forces:R:3 energy=-2.074515743076012 pbc="F F F"
Ni       0.00000000       0.00000000       0.00000000       0.00000000       0.00000000       0.36304554
Ni       0.00000000       0.00000000       3.88363636       0.00000000       0.00000000      -0.36304554
2
Properties=species:S:1:pos:R:3:forces:R:3 energy=-2.054045992517425 pbc="F F F"
Ni       0.00000000       0.00000000       0.00000000       0.00000000       0.00000000       0.33358496
Ni       0.00000000       0.00000000       3.94242424       0.00000000       0.00000000      -0.33358496
2
Properties=species:S:1:pos:R:3:forces:R:3 energy=-2.035268310078403 pbc="F F F"
Ni       0.00000000       0.00000000       0.00000000       0.00000000       0.00000000       0.30546388
Ni       0.00000000       0.00000000       4.00121212       0.00000000       0.00000000      -0.30546388
2
Properties=species:S:1:pos:R:3:forces:R:3 energy=-2.0181069258974267 pbc="F F F"
Ni       0.00000000       0.00000000       0.00000000       0.00000000       0.00000000       0.27857360
Ni       0.00000000       0.00000000       4.06000000       0.00000000       0.00000000      -0.27857360
2
Properties=species:S:1:pos:R:3:forces:R:3 energy=-2.0024914720489897 pbc="F F F"
Ni       0.00000000       0.00000000       0.00000000       0.00000000       0.00000000       0.25288031
Ni       0.00000000       0.00000000       4.11878788       0.00000000       0.00000000      -0.25288031
2
Properties=species:S:1:pos:R:3:forces:R:3 energy=-1.9883502359633418 pbc="F F F"
Ni       0.00000000       0.00000000       0.00000000       0.00000000       0.00000000       0.22841510
Ni       0.00000000       0.00000000       4.17757576       0.00000000       0.00000000      -0.22841510
2
Properties=species:S:1:pos:R:3:forces:R:3 energy=-1.9756093806463582 pbc="F F F"
Ni       0.00000000       0.00000000       0.00000000       0.00000000       0.00000000       0.20526619
Ni       0.00000000       0.00000000       4.23636364       0.00000000       0.00000000      -0.20526619
2
Properties=species:S:1:pos:R:3:forces:R:3 energy=-1.9641875715899613 pbc="F F F"
Ni       0.00000000       0.00000000       0.00000000       0.00000000       0.00000000       0.18355373
Ni       0.00000000       0.00000000       4.29515152       0.00000000       0.00000000      -0.18355373
2
Properties=species:S:1:pos:R:3:forces:R:3 energy=-1.9539974441295085 pbc="F F F"
Ni       0.00000000       0.00000000       0.00000000       0.00000000       0.00000000       0.16340175
Ni       0.00000000       0.00000000       4.35393939       0.00000000       0.00000000      -0.16340175
2
Properties=species:S:1:pos:R:3:forces:R:3 energy=-1.944943152397702 pbc="F F F"
Ni       0.00000000       0.00000000       0.00000000       0.00000000       0.00000000       0.14490882
Ni       0.00000000       0.00000000       4.41272727       0.00000000       0.00000000      -0.14490882
2
Properties=species:S:1:pos:R:3:forces:R:3 energy=-1.936925935315285 pbc="F F F"
Ni       0.00000000       0.00000000       0.00000000       0.00000000       0.00000000       0.12812744
Ni       0.00000000       0.00000000       4.47151515       0.00000000       0.00000000      -0.12812744
2
Properties=species:S:1:pos:R:3:forces:R:3 energy=-1.9298450921040773 pbc="F F F"
Ni       0.00000000       0.00000000       0.00000000       0.00000000       0.00000000       0.11304410
Ni       0.00000000       0.00000000       4.53030303       0.00000000       0.00000000      -0.11304410
2
Properties=species:S:1:pos:R:3:forces:R:3 energy=-1.92360320215314 pbc="F F F"
Ni       0.00000000       0.00000000       0.00000000       0.00000000       0.00000000       0.09956901
Ni       0.00000000       0.00000000       4.58909091       0.00000000       0.00000000      -0.09956901
2
Properties=species:S:1:pos:R:3:forces:R:3 energy=-1.918109989233242 pbc="F F F"
Ni       0.00000000       0.00000000       0.00000000       0.00000000       0.00000000       0.08754073
Ni       0.00000000       0.00000000       4.64787879       0.00000000       0.00000000      -0.08754073
2
Properties=species:S:1:pos:R:3:forces:R:3 energy=-1.9132864641436447 pbc="F F F"
Ni       0.00000000       0.00000000       0.00000000       0.00000000       0.00000000       0.07673825
Ni       0.00000000       0.00000000       4.70666667       0.00000000       0.00000000      -0.07673825
2
Properties=species:S:1:pos:R:3:forces:R:3 energy=-1.9090680970135379 pbc="F F F"
Ni       0.00000000       0.00000000       0.00000000       0.00000000       0.00000000       0.06692152
Ni       0.00000000       0.00000000       4.76545455       0.00000000       0.00000000      -0.06692152
2
Properties=species:S:1:pos:R:3:forces:R:3 energy=-1.905402875107364 pbc="F F F"
Ni       0.00000000       0.00000000       0.00000000       0.00000000       0.00000000       0.05787703
Ni       0.00000000       0.00000000       4.82424242       0.00000000       0.00000000      -0.05787703
2
Properties=species:S:1:pos:R:3:forces:R:3 energy=-1.9022504220104117 pbc="F F F"
Ni       0.00000000       0.00000000       0.00000000       0.00000000       0.00000000       0.04948671
Ni       0.00000000       0.00000000       4.88303030       0.00000000       0.00000000      -0.04948671
2
Properties=species:S:1:pos:R:3:forces:R:3 energy=-1.8995714723652906 pbc="F F F"
Ni       0.00000000       0.00000000       0.00000000       0.00000000       0.00000000       0.04177089
Ni       0.00000000       0.00000000       4.94181818       0.00000000       0.00000000      -0.04177089
2
Properties=species:S:1:pos:R:3:forces:R:3 energy=-1.8973222606998095 pbc="F F F"
Ni       0.00000000       0.00000000       0.00000000       0.00000000       0.00000000       0.03491773
Ni       0.00000000       0.00000000       5.00060606       0.00000000       0.00000000      -0.03491773
2
Properties=species:S:1:pos:R:3:forces:R:3 energy=-1.8954433454321082 pbc="F F F"
Ni       0.00000000       0.00000000       0.00000000       0.00000000       0.00000000       0.02922444
Ni       0.00000000       0.00000000       5.05939394       0.00000000       0.00000000      -0.02922444
2
Properties=species:S:1:pos:R:3:forces:R:3 energy=-1.893857650836872 pbc="F F F"
Ni       0.00000000       0.00000000       0.00000000       0.00000000       0.00000000       0.02497940
Ni       0.00000000       0.00000000       5.11818182       0.00000000       0.00000000      -0.02497940
2
Properties=species:S:1:pos:R:3:forces:R:3 energy=-1.8924761058959356 pbc="F F F"
Ni       0.00000000       0.00000000       0.00000000       0.00000000       0.00000000       0.02226876
Ni       0.00000000       0.00000000       5.17696970       0.00000000       0.00000000      -0.02226876
2
Properties=species:S:1:pos:R:3:forces:R:3 energy=-1.8912147973487303 pbc="F F F"
Ni       0.00000000       0.00000000       0.00000000       0.00000000       0.00000000       0.02079698
Ni       0.00000000       0.00000000       5.23575758       0.00000000       0.00000000      -0.02079698
2
Properties=species:S:1:pos:R:3:forces:R:3 energy=-1.8900208444437616 pbc="F F F"
Ni       0.00000000       0.00000000       0.00000000       0.00000000       0.00000000       0.01982410
Ni       0.00000000       0.00000000       5.29454545       0.00000000       0.00000000      -0.01982410
2
Properties=species:S:1:pos:R:3:forces:R:3 energy=-1.8888923365683155 pbc="F F F"
Ni       0.00000000       0.00000000       0.00000000       0.00000000       0.00000000       0.01844419
Ni       0.00000000       0.00000000       5.35333333       0.00000000       0.00000000      -0.01844419
2
Properties=species:S:1:pos:R:3:forces:R:3 energy=-1.8878657303258979 pbc="F F F"
Ni       0.00000000       0.00000000       0.00000000       0.00000000       0.00000000       0.01644058
Ni       0.00000000       0.00000000       5.41212121       0.00000000       0.00000000      -0.01644058
2
Properties=species:S:1:pos:R:3:forces:R:3 energy=-1.8869475758754557 pbc="F F F"
Ni       0.00000000       0.00000000       0.00000000       0.00000000       0.00000000       0.01502841
Ni       0.00000000       0.00000000       5.47090909       0.00000000       0.00000000      -0.01502841
2
Properties=species:S:1:pos:R:3:forces:R:3 energy=-1.8860725500937618 pbc="F F F"
Ni       0.00000000       0.00000000       0.00000000       0.00000000       0.00000000       0.01481662
Ni       0.00000000       0.00000000       5.52969697       0.00000000       0.00000000      -0.01481662
2
Properties=species:S:1:pos:R:3:forces:R:3 energy=-1.8852228009133667 pbc="F F F"
Ni       0.00000000       0.00000000       0.00000000       0.00000000       0.00000000       0.01379706
Ni       0.00000000       0.00000000       5.58848485       0.00000000       0.00000000      -0.01379706
2
Properties=species:S:1:pos:R:3:forces:R:3 energy=-1.8844803118789324 pbc="F F F"
Ni       0.00000000       0.00000000       0.00000000       0.00000000       0.00000000       0.01135045
Ni       0.00000000       0.00000000       5.64727273       0.00000000       0.00000000      -0.01135045
2
Properties=species:S:1:pos:R:3:forces:R:3 energy=-1.8838707823274312 pbc="F F F"
Ni       0.00000000       0.00000000       0.00000000       0.00000000       0.00000000       0.00984775
Ni       0.00000000       0.00000000       5.70606061       0.00000000       0.00000000      -0.00984775
2
Properties=species:S:1:pos:R:3:forces:R:3 energy=-1.8832458961274017 pbc="F F F"
Ni       0.00000000       0.00000000       0.00000000       0.00000000       0.00000000       0.01201791
Ni       0.00000000       0.00000000       5.76484848       0.00000000       0.00000000      -0.01201791
2
Properties=species:S:1:pos:R:3:forces:R:3 energy=-1.8824417524086727 pbc="F F F"
Ni       0.00000000       0.00000000       0.00000000       0.00000000       0.00000000       0.01494444
Ni       0.00000000       0.00000000       5.82363636       0.00000000       0.00000000      -0.01494444
2
Properties=species:S:1:pos:R:3:forces:R:3 energy=-1.8815677144226781 pbc="F F F"
Ni       0.00000000       0.00000000       0.00000000       0.00000000       0.00000000       0.01418530
Ni       0.00000000       0.00000000       5.88242424       0.00000000       0.00000000      -0.01418530
2
Properties=species:S:1:pos:R:3:forces:R:3 energy=-1.8808143043563224 pbc="F F F"
Ni       0.00000000       0.00000000       0.00000000       0.00000000       0.00000000       0.01139271
Ni       0.00000000       0.00000000       5.94121212       0.00000000       0.00000000      -0.01139271
2
Properties=species:S:1:pos:R:3:forces:R:3 energy=-1.8802041386961525 pbc="F F F"
Ni       0.00000000       0.00000000       0.00000000       0.00000000       0.00000000       0.00971282
Ni       0.00000000       0.00000000       6.00000000       0.00000000       0.00000000      -0.00971282
