2
Properties=species:S:1:pos:R:3:forces:R:3 energy=21105.147057242524 pbc="F F F"
Os       0.00000000       0.00000000       0.00000000       0.00000000       0.00000000 -270474.09375000
Os       0.00000000       0.00000000       0.18000000       0.00000000       0.00000000  270474.09375000
2
Properties=species:S:1:pos:R:3:forces:R:3 energy=11632.652916617526 pbc="F F F"
Os       0.00000000       0.00000000       0.00000000       0.00000000       0.00000000  -90328.96093750
Os       0.00000000       0.00000000       0.23878788       0.00000000       0.00000000   90328.96093750
2
Properties=species:S:1:pos:R:3:forces:R:3 energy=8163.1314322488615 pbc="F F F"
Os       0.00000000       0.00000000       0.00000000       0.00000000       0.00000000  -37486.35156250
Os       0.00000000       0.00000000       0.29757576       0.00000000       0.00000000   37486.35156250
2
Properties=species:S:1:pos:R:3:forces:R:3 energy=6560.1802603738615 pbc="F F F"
Os       0.00000000       0.00000000       0.00000000       0.00000000       0.00000000  -20242.29687500
Os       0.00000000       0.00000000       0.35636364       0.00000000       0.00000000   20242.29687500
2
Properties=species:S:1:pos:R:3:forces:R:3 energy=5549.1797720926115 pbc="F F F"
Os       0.00000000       0.00000000       0.00000000       0.00000000       0.00000000  -15346.21582031
Os       0.00000000       0.00000000       0.41515152       0.00000000       0.00000000   15346.21582031
2
Properties=species:S:1:pos:R:3:forces:R:3 energy=4627.743248661447 pbc="F F F"
Os       0.00000000       0.00000000       0.00000000       0.00000000       0.00000000  -17164.58789062
Os       0.00000000       0.00000000       0.47393939       0.00000000       0.00000000   17164.58789062
2
Properties=species:S:1:pos:R:3:forces:R:3 energy=3611.0701529773287 pbc="F F F"
Os       0.00000000       0.00000000       0.00000000       0.00000000       0.00000000  -17399.95898438
Os       0.00000000       0.00000000       0.53272727       0.00000000       0.00000000   17399.95898438
2
Properties=species:S:1:pos:R:3:forces:R:3 energy=2593.1446158932963 pbc="F F F"
Os       0.00000000       0.00000000       0.00000000       0.00000000       0.00000000  -16181.00195312
Os       0.00000000       0.00000000       0.59151515       0.00000000       0.00000000   16181.00195312
2
Properties=species:S:1:pos:R:3:forces:R:3 energy=1810.9219596813102 pbc="F F F"
Os       0.00000000       0.00000000       0.00000000       0.00000000       0.00000000   -7445.86962891
Os       0.00000000       0.00000000       0.65030303       0.00000000       0.00000000    7445.86962891
2
Properties=species:S:1:pos:R:3:forces:R:3 energy=1398.6944206948378 pbc="F F F"
Os       0.00000000       0.00000000       0.00000000       0.00000000       0.00000000   -6528.26269531
Os       0.00000000       0.00000000       0.70909091       0.00000000       0.00000000    6528.26269531
2
Properties=species:S:1:pos:R:3:forces:R:3 energy=1048.29781434456 pbc="F F F"
Os       0.00000000       0.00000000       0.00000000       0.00000000       0.00000000   -5320.62500000
Os       0.00000000       0.00000000       0.76787879       0.00000000       0.00000000    5320.62500000
2
Properties=species:S:1:pos:R:3:forces:R:3 energy=787.0718013130218 pbc="F F F"
Os       0.00000000       0.00000000       0.00000000       0.00000000       0.00000000   -3400.21215820
Os       0.00000000       0.00000000       0.82666667       0.00000000       0.00000000    3400.21215820
2
Properties=species:S:1:pos:R:3:forces:R:3 energy=620.90682350109 pbc="F F F"
Os       0.00000000       0.00000000       0.00000000       0.00000000       0.00000000   -2535.58666992
Os       0.00000000       0.00000000       0.88545455       0.00000000       0.00000000    2535.58666992
2
Properties=species:S:1:pos:R:3:forces:R:3 energy=482.9611450942634 pbc="F F F"
Os       0.00000000       0.00000000       0.00000000       0.00000000       0.00000000   -2163.83447266
Os       0.00000000       0.00000000       0.94424242       0.00000000       0.00000000    2163.83447266
2
Properties=species:S:1:pos:R:3:forces:R:3 energy=366.88421069796277 pbc="F F F"
Os       0.00000000       0.00000000       0.00000000       0.00000000       0.00000000   -1788.50146484
Os       0.00000000       0.00000000       1.00303030       0.00000000       0.00000000    1788.50146484
2
Properties=species:S:1:pos:R:3:forces:R:3 energy=271.45568342346826 pbc="F F F"
Os       0.00000000       0.00000000       0.00000000       0.00000000       0.00000000   -1418.26550293
Os       0.00000000       0.00000000       1.06181818       0.00000000       0.00000000    1418.26550293
2
Properties=species:S:1:pos:R:3:forces:R:3 energy=200.66869686638677 pbc="F F F"
Os       0.00000000       0.00000000       0.00000000       0.00000000       0.00000000   -1024.30187988
Os       0.00000000       0.00000000       1.12060606       0.00000000       0.00000000    1024.30187988
2
Properties=species:S:1:pos:R:3:forces:R:3 energy=149.39278841824785 pbc="F F F"
Os       0.00000000       0.00000000       0.00000000       0.00000000       0.00000000    -733.76428223
Os       0.00000000       0.00000000       1.17939394       0.00000000       0.00000000     733.76428223
2
Properties=species:S:1:pos:R:3:forces:R:3 energy=111.77280220075157 pbc="F F F"
Os       0.00000000       0.00000000       0.00000000       0.00000000       0.00000000    -562.02520752
Os       0.00000000       0.00000000       1.23818182       0.00000000       0.00000000     562.02520752
2
Properties=species:S:1:pos:R:3:forces:R:3 energy=82.01562455291914 pbc="F F F"
Os       0.00000000       0.00000000       0.00000000       0.00000000       0.00000000    -459.96282959
Os       0.00000000       0.00000000       1.29696970       0.00000000       0.00000000     459.96282959
2
Properties=species:S:1:pos:R:3:forces:R:3 energy=57.53589408590451 pbc="F F F"
Os       0.00000000       0.00000000       0.00000000       0.00000000       0.00000000    -369.16546631
Os       0.00000000       0.00000000       1.35575758       0.00000000       0.00000000     369.16546631
2
Properties=species:S:1:pos:R:3:forces:R:3 energy=38.782104836422775 pbc="F F F"
Os       0.00000000       0.00000000       0.00000000       0.00000000       0.00000000    -270.90301514
Os       0.00000000       0.00000000       1.41454545       0.00000000       0.00000000     270.90301514
2
Properties=species:S:1:pos:R:3:forces:R:3 energy=25.13743371893657 pbc="F F F"
Os       0.00000000       0.00000000       0.00000000       0.00000000       0.00000000    -198.11306763
Os       0.00000000       0.00000000       1.47333333       0.00000000       0.00000000     198.11306763
2
Properties=species:S:1:pos:R:3:forces:R:3 energy=15.097238348243945 pbc="F F F"
Os       0.00000000       0.00000000       0.00000000       0.00000000       0.00000000    -145.88433838
Os       0.00000000       0.00000000       1.53212121       0.00000000       0.00000000     145.88433838
2
Properties=species:S:1:pos:R:3:forces:R:3 energy=7.711271118148601 pbc="F F F"
Os       0.00000000       0.00000000       0.00000000       0.00000000       0.00000000    -107.59249878
Os       0.00000000       0.00000000       1.59090909       0.00000000       0.00000000     107.59249878
2
Properties=species:S:1:pos:R:3:forces:R:3 energy=2.232994927799363 pbc="F F F"
Os       0.00000000       0.00000000       0.00000000       0.00000000       0.00000000     -80.17269135
Os       0.00000000       0.00000000       1.64969697       0.00000000       0.00000000      80.17269135
2
Properties=species:S:1:pos:R:3:forces:R:3 energy=-1.8395820453054115 pbc="F F F"
Os       0.00000000       0.00000000       0.00000000       0.00000000       0.00000000     -59.20368195
Os       0.00000000       0.00000000       1.70848485       0.00000000       0.00000000      59.20368195
2
Properties=species:S:1:pos:R:3:forces:R:3 energy=-4.811089254577225 pbc="F F F"
Os       0.00000000       0.00000000       0.00000000       0.00000000       0.00000000     -42.52985382
Os       0.00000000       0.00000000       1.76727273       0.00000000       0.00000000      42.52985382
2
Properties=species:S:1:pos:R:3:forces:R:3 energy=-6.912164940283242 pbc="F F F"
Os       0.00000000       0.00000000       0.00000000       0.00000000       0.00000000     -29.53805733
Os       0.00000000       0.00000000       1.82606061       0.00000000       0.00000000      29.53805733
2
Properties=species:S:1:pos:R:3:forces:R:3 energy=-8.348556579248775 pbc="F F F"
Os       0.00000000       0.00000000       0.00000000       0.00000000       0.00000000     -19.82584763
Os       0.00000000       0.00000000       1.88484848       0.00000000       0.00000000      19.82584763
2
Properties=species:S:1:pos:R:3:forces:R:3 energy=-9.294249638400908 pbc="F F F"
Os       0.00000000       0.00000000       0.00000000       0.00000000       0.00000000     -12.71905136
Os       0.00000000       0.00000000       1.94363636       0.00000000       0.00000000      12.71905136
2
Properties=species:S:1:pos:R:3:forces:R:3 energy=-9.881254650339601 pbc="F F F"
Os       0.00000000       0.00000000       0.00000000       0.00000000       0.00000000      -7.51937103
Os       0.00000000       0.00000000       2.00242424       0.00000000       0.00000000       7.51937103
2
Properties=species:S:1:pos:R:3:forces:R:3 energy=-10.205283490708577 pbc="F F F"
Os       0.00000000       0.00000000       0.00000000       0.00000000       0.00000000      -3.69992709
Os       0.00000000       0.00000000       2.06121212       0.00000000       0.00000000       3.69992709
2
Properties=species:S:1:pos:R:3:forces:R:3 energy=-10.336132657706818 pbc="F F F"
Os       0.00000000       0.00000000       0.00000000       0.00000000       0.00000000      -0.89755458
Os       0.00000000       0.00000000       2.12000000       0.00000000       0.00000000       0.89755458
2
Properties=species:S:1:pos:R:3:forces:R:3 energy=-10.325819111871485 pbc="F F F"
Os       0.00000000       0.00000000       0.00000000       0.00000000       0.00000000       1.13643062
Os       0.00000000       0.00000000       2.17878788       0.00000000       0.00000000      -1.13643062
2
Properties=species:S:1:pos:R:3:forces:R:3 energy=-10.21422183287543 pbc="F F F"
Os       0.00000000       0.00000000       0.00000000       0.00000000       0.00000000       2.57127428
Os       0.00000000       0.00000000       2.23757576       0.00000000       0.00000000      -2.57127428
2
Properties=species:S:1:pos:R:3:forces:R:3 energy=-10.032938693554934 pbc="F F F"
Os       0.00000000       0.00000000       0.00000000       0.00000000       0.00000000       3.52358699
Os       0.00000000       0.00000000       2.29636364       0.00000000       0.00000000      -3.52358699
2
Properties=species:S:1:pos:R:3:forces:R:3 energy=-9.80764534901321 pbc="F F F"
Os       0.00000000       0.00000000       0.00000000       0.00000000       0.00000000       4.08236933
Os       0.00000000       0.00000000       2.35515152       0.00000000       0.00000000      -4.08236933
2
Properties=species:S:1:pos:R:3:forces:R:3 energy=-9.55904409424864 pbc="F F F"
Os       0.00000000       0.00000000       0.00000000       0.00000000       0.00000000       4.33046770
Os       0.00000000       0.00000000       2.41393939       0.00000000       0.00000000      -4.33046770
2
Properties=species:S:1:pos:R:3:forces:R:3 energy=-9.302871010761539 pbc="F F F"
Os       0.00000000       0.00000000       0.00000000       0.00000000       0.00000000       4.35477209
Os       0.00000000       0.00000000       2.47272727       0.00000000       0.00000000      -4.35477209
2
Properties=species:S:1:pos:R:3:forces:R:3 energy=-9.049722716339964 pbc="F F F"
Os       0.00000000       0.00000000       0.00000000       0.00000000       0.00000000       4.24107170
Os       0.00000000       0.00000000       2.53151515       0.00000000       0.00000000      -4.24107170
2
Properties=species:S:1:pos:R:3:forces:R:3 energy=-8.805513452866515 pbc="F F F"
Os       0.00000000       0.00000000       0.00000000       0.00000000       0.00000000       4.06071806
Os       0.00000000       0.00000000       2.59030303       0.00000000       0.00000000      -4.06071806
2
Properties=species:S:1:pos:R:3:forces:R:3 energy=-8.572627755158493 pbc="F F F"
Os       0.00000000       0.00000000       0.00000000       0.00000000       0.00000000       3.86190820
Os       0.00000000       0.00000000       2.64909091       0.00000000       0.00000000      -3.86190820
2
Properties=species:S:1:pos:R:3:forces:R:3 energy=-8.35127169325882 pbc="F F F"
Os       0.00000000       0.00000000       0.00000000       0.00000000       0.00000000       3.67162180
Os       0.00000000       0.00000000       2.70787879       0.00000000       0.00000000      -3.67162180
2
Properties=species:S:1:pos:R:3:forces:R:3 energy=-8.140494748642576 pbc="F F F"
Os       0.00000000       0.00000000       0.00000000       0.00000000       0.00000000       3.50337887
Os       0.00000000       0.00000000       2.76666667       0.00000000       0.00000000      -3.50337887
2
Properties=species:S:1:pos:R:3:forces:R:3 energy=-7.938878205849418 pbc="F F F"
Os       0.00000000       0.00000000       0.00000000       0.00000000       0.00000000       3.35903525
Os       0.00000000       0.00000000       2.82545455       0.00000000       0.00000000      -3.35903525
2
Properties=species:S:1:pos:R:3:forces:R:3 energy=-7.745344599232938 pbc="F F F"
Os       0.00000000       0.00000000       0.00000000       0.00000000       0.00000000       3.22514606
Os       0.00000000       0.00000000       2.88424242       0.00000000       0.00000000      -3.22514606
2
Properties=species:S:1:pos:R:3:forces:R:3 energy=-7.559846153806725 pbc="F F F"
Os       0.00000000       0.00000000       0.00000000       0.00000000       0.00000000       3.08312249
Os       0.00000000       0.00000000       2.94303030       0.00000000       0.00000000      -3.08312249
2
Properties=species:S:1:pos:R:3:forces:R:3 energy=-7.383192764124198 pbc="F F F"
Os       0.00000000       0.00000000       0.00000000       0.00000000       0.00000000       2.92361736
Os       0.00000000       0.00000000       3.00181818       0.00000000       0.00000000      -2.92361736
2
Properties=species:S:1:pos:R:3:forces:R:3 energy=-7.216450704288409 pbc="F F F"
Os       0.00000000       0.00000000       0.00000000       0.00000000       0.00000000       2.74632502
Os       0.00000000       0.00000000       3.06060606       0.00000000       0.00000000      -2.74632502
2
Properties=species:S:1:pos:R:3:forces:R:3 energy=-7.06056346175611 pbc="F F F"
Os       0.00000000       0.00000000       0.00000000       0.00000000       0.00000000       2.55527139
Os       0.00000000       0.00000000       3.11939394       0.00000000       0.00000000      -2.55527139
2
Properties=species:S:1:pos:R:3:forces:R:3 energy=-6.916161342303008 pbc="F F F"
Os       0.00000000       0.00000000       0.00000000       0.00000000       0.00000000       2.35664511
Os       0.00000000       0.00000000       3.17818182       0.00000000       0.00000000      -2.35664511
2
Properties=species:S:1:pos:R:3:forces:R:3 energy=-6.783490766492289 pbc="F F F"
Os       0.00000000       0.00000000       0.00000000       0.00000000       0.00000000       2.15734696
Os       0.00000000       0.00000000       3.23696970       0.00000000       0.00000000      -2.15734696
2
Properties=species:S:1:pos:R:3:forces:R:3 energy=-6.662404251618494 pbc="F F F"
Os       0.00000000       0.00000000       0.00000000       0.00000000       0.00000000       1.96335828
Os       0.00000000       0.00000000       3.29575758       0.00000000       0.00000000      -1.96335828
2
Properties=species:S:1:pos:R:3:forces:R:3 energy=-6.552466185594766 pbc="F F F"
Os       0.00000000       0.00000000       0.00000000       0.00000000       0.00000000       1.77854550
Os       0.00000000       0.00000000       3.35454545       0.00000000       0.00000000      -1.77854550
2
Properties=species:S:1:pos:R:3:forces:R:3 energy=-6.45308049528664 pbc="F F F"
Os       0.00000000       0.00000000       0.00000000       0.00000000       0.00000000       1.60442483
Os       0.00000000       0.00000000       3.41333333       0.00000000       0.00000000      -1.60442483
2
Properties=species:S:1:pos:R:3:forces:R:3 energy=-6.363617450190223 pbc="F F F"
Os       0.00000000       0.00000000       0.00000000       0.00000000       0.00000000       1.44082069
Os       0.00000000       0.00000000       3.47212121       0.00000000       0.00000000      -1.44082069
2
Properties=species:S:1:pos:R:3:forces:R:3 energy=-6.283487285423896 pbc="F F F"
Os       0.00000000       0.00000000       0.00000000       0.00000000       0.00000000       1.28682244
Os       0.00000000       0.00000000       3.53090909       0.00000000       0.00000000      -1.28682244
2
Properties=species:S:1:pos:R:3:forces:R:3 energy=-6.212148005353053 pbc="F F F"
Os       0.00000000       0.00000000       0.00000000       0.00000000       0.00000000       1.14156079
Os       0.00000000       0.00000000       3.58969697       0.00000000       0.00000000      -1.14156079
2
Properties=species:S:1:pos:R:3:forces:R:3 energy=-6.1491025384062725 pbc="F F F"
Os       0.00000000       0.00000000       0.00000000       0.00000000       0.00000000       1.00468171
Os       0.00000000       0.00000000       3.64848485       0.00000000       0.00000000      -1.00468171
2
Properties=species:S:1:pos:R:3:forces:R:3 energy=-6.093854479918617 pbc="F F F"
Os       0.00000000       0.00000000       0.00000000       0.00000000       0.00000000       0.87637633
Os       0.00000000       0.00000000       3.70727273       0.00000000       0.00000000      -0.87637633
2
Properties=species:S:1:pos:R:3:forces:R:3 energy=-6.04588185658447 pbc="F F F"
Os       0.00000000       0.00000000       0.00000000       0.00000000       0.00000000       0.75724924
Os       0.00000000       0.00000000       3.76606061       0.00000000       0.00000000      -0.75724924
2
Properties=species:S:1:pos:R:3:forces:R:3 energy=-6.0046248173904395 pbc="F F F"
Os       0.00000000       0.00000000       0.00000000       0.00000000       0.00000000       0.64809024
Os       0.00000000       0.00000000       3.82484848       0.00000000       0.00000000      -0.64809024
2
Properties=species:S:1:pos:R:3:forces:R:3 energy=-5.969472781186846 pbc="F F F"
Os       0.00000000       0.00000000       0.00000000       0.00000000       0.00000000       0.54963070
Os       0.00000000       0.00000000       3.88363636       0.00000000       0.00000000      -0.54963070
2
Properties=species:S:1:pos:R:3:forces:R:3 energy=-5.939781189344699 pbc="F F F"
Os       0.00000000       0.00000000       0.00000000       0.00000000       0.00000000       0.46241263
Os       0.00000000       0.00000000       3.94242424       0.00000000       0.00000000      -0.46241263
2
Properties=species:S:1:pos:R:3:forces:R:3 energy=-5.914879157324982 pbc="F F F"
Os       0.00000000       0.00000000       0.00000000       0.00000000       0.00000000       0.38669777
Os       0.00000000       0.00000000       4.00121212       0.00000000       0.00000000      -0.38669777
2
Properties=species:S:1:pos:R:3:forces:R:3 energy=-5.8940904396745095 pbc="F F F"
Os       0.00000000       0.00000000       0.00000000       0.00000000       0.00000000       0.32243609
Os       0.00000000       0.00000000       4.06000000       0.00000000       0.00000000      -0.32243609
2
Properties=species:S:1:pos:R:3:forces:R:3 energy=-5.87675075455472 pbc="F F F"
Os       0.00000000       0.00000000       0.00000000       0.00000000       0.00000000       0.26926607
Os       0.00000000       0.00000000       4.11878788       0.00000000       0.00000000      -0.26926607
2
Properties=species:S:1:pos:R:3:forces:R:3 energy=-5.862227239030507 pbc="F F F"
Os       0.00000000       0.00000000       0.00000000       0.00000000       0.00000000       0.22649437
Os       0.00000000       0.00000000       4.17757576       0.00000000       0.00000000      -0.22649437
2
Properties=species:S:1:pos:R:3:forces:R:3 energy=-5.849936187079732 pbc="F F F"
Os       0.00000000       0.00000000       0.00000000       0.00000000       0.00000000       0.19310406
Os       0.00000000       0.00000000       4.23636364       0.00000000       0.00000000      -0.19310406
2
Properties=species:S:1:pos:R:3:forces:R:3 energy=-5.83936443123761 pbc="F F F"
Os       0.00000000       0.00000000       0.00000000       0.00000000       0.00000000       0.16776074
Os       0.00000000       0.00000000       4.29515152       0.00000000       0.00000000      -0.16776074
2
Properties=species:S:1:pos:R:3:forces:R:3 energy=-5.830085135243737 pbc="F F F"
Os       0.00000000       0.00000000       0.00000000       0.00000000       0.00000000       0.14888366
Os       0.00000000       0.00000000       4.35393939       0.00000000       0.00000000      -0.14888366
2
Properties=species:S:1:pos:R:3:forces:R:3 energy=-5.821767273764446 pbc="F F F"
Os       0.00000000       0.00000000       0.00000000       0.00000000       0.00000000       0.13473505
Os       0.00000000       0.00000000       4.41272727       0.00000000       0.00000000      -0.13473505
2
Properties=species:S:1:pos:R:3:forces:R:3 energy=-5.814184698634464 pbc="F F F"
Os       0.00000000       0.00000000       0.00000000       0.00000000       0.00000000       0.12358414
Os       0.00000000       0.00000000       4.47151515       0.00000000       0.00000000      -0.12358414
2
Properties=species:S:1:pos:R:3:forces:R:3 energy=-5.807208891264872 pbc="F F F"
Os       0.00000000       0.00000000       0.00000000       0.00000000       0.00000000       0.11386077
Os       0.00000000       0.00000000       4.53030303       0.00000000       0.00000000      -0.11386077
2
Properties=species:S:1:pos:R:3:forces:R:3 energy=-5.800794130006045 pbc="F F F"
Os       0.00000000       0.00000000       0.00000000       0.00000000       0.00000000       0.10430987
Os       0.00000000       0.00000000       4.58909091       0.00000000       0.00000000      -0.10430987
2
Properties=species:S:1:pos:R:3:forces:R:3 energy=-5.79495794299199 pbc="F F F"
Os       0.00000000       0.00000000       0.00000000       0.00000000       0.00000000       0.09409361
Os       0.00000000       0.00000000       4.64787879       0.00000000       0.00000000      -0.09409361
2
Properties=species:S:1:pos:R:3:forces:R:3 energy=-5.789751821500899 pbc="F F F"
Os       0.00000000       0.00000000       0.00000000       0.00000000       0.00000000       0.08283129
Os       0.00000000       0.00000000       4.70666667       0.00000000       0.00000000      -0.08283129
2
Properties=species:S:1:pos:R:3:forces:R:3 energy=-5.785238843454759 pbc="F F F"
Os       0.00000000       0.00000000       0.00000000       0.00000000       0.00000000       0.07057780
Os       0.00000000       0.00000000       4.76545455       0.00000000       0.00000000      -0.07057780
2
Properties=species:S:1:pos:R:3:forces:R:3 energy=-5.781464914302214 pbc="F F F"
Os       0.00000000       0.00000000       0.00000000       0.00000000       0.00000000       0.05773924
Os       0.00000000       0.00000000       4.82424242       0.00000000       0.00000000      -0.05773924
2
Properties=species:S:1:pos:R:3:forces:R:3 energy=-5.778448743934784 pbc="F F F"
Os       0.00000000       0.00000000       0.00000000       0.00000000       0.00000000       0.04495725
Os       0.00000000       0.00000000       4.88303030       0.00000000       0.00000000      -0.04495725
2
Properties=species:S:1:pos:R:3:forces:R:3 energy=-5.776164480976366 pbc="F F F"
Os       0.00000000       0.00000000       0.00000000       0.00000000       0.00000000       0.03294482
Os       0.00000000       0.00000000       4.94181818       0.00000000       0.00000000      -0.03294482
2
Properties=species:S:1:pos:R:3:forces:R:3 energy=-5.774547485514295 pbc="F F F"
Os       0.00000000       0.00000000       0.00000000       0.00000000       0.00000000       0.02234400
Os       0.00000000       0.00000000       5.00060606       0.00000000       0.00000000      -0.02234400
2
Properties=species:S:1:pos:R:3:forces:R:3 energy=-5.773501383454222 pbc="F F F"
Os       0.00000000       0.00000000       0.00000000       0.00000000       0.00000000       0.01355046
Os       0.00000000       0.00000000       5.05939394       0.00000000       0.00000000      -0.01355046
2
Properties=species:S:1:pos:R:3:forces:R:3 energy=-5.772917523392855 pbc="F F F"
Os       0.00000000       0.00000000       0.00000000       0.00000000       0.00000000       0.00661330
Os       0.00000000       0.00000000       5.11818182       0.00000000       0.00000000      -0.00661330
2
Properties=species:S:1:pos:R:3:forces:R:3 energy=-5.772693574851034 pbc="F F F"
Os       0.00000000       0.00000000       0.00000000       0.00000000       0.00000000       0.00122351
Os       0.00000000       0.00000000       5.17696970       0.00000000       0.00000000      -0.00122351
2
Properties=species:S:1:pos:R:3:forces:R:3 energy=-5.772753069093753 pbc="F F F"
Os       0.00000000       0.00000000       0.00000000       0.00000000       0.00000000      -0.00311687
Os       0.00000000       0.00000000       5.23575758       0.00000000       0.00000000       0.00311687
2
Properties=species:S:1:pos:R:3:forces:R:3 energy=-5.773047216195864 pbc="F F F"
Os       0.00000000       0.00000000       0.00000000       0.00000000       0.00000000      -0.00679101
Os       0.00000000       0.00000000       5.29454545       0.00000000       0.00000000       0.00679101
2
Properties=species:S:1:pos:R:3:forces:R:3 energy=-5.773539245443583 pbc="F F F"
Os       0.00000000       0.00000000       0.00000000       0.00000000       0.00000000      -0.00981611
Os       0.00000000       0.00000000       5.35333333       0.00000000       0.00000000       0.00981611
2
Properties=species:S:1:pos:R:3:forces:R:3 energy=-5.774185289082568 pbc="F F F"
Os       0.00000000       0.00000000       0.00000000       0.00000000       0.00000000      -0.01203854
Os       0.00000000       0.00000000       5.41212121       0.00000000       0.00000000       0.01203854
2
Properties=species:S:1:pos:R:3:forces:R:3 energy=-5.774942493301336 pbc="F F F"
Os       0.00000000       0.00000000       0.00000000       0.00000000       0.00000000      -0.01362864
Os       0.00000000       0.00000000       5.47090909       0.00000000       0.00000000       0.01362864
2
Properties=species:S:1:pos:R:3:forces:R:3 energy=-5.7757733509473805 pbc="F F F"
Os       0.00000000       0.00000000       0.00000000       0.00000000       0.00000000      -0.01441639
Os       0.00000000       0.00000000       5.52969697       0.00000000       0.00000000       0.01441639
2
Properties=species:S:1:pos:R:3:forces:R:3 energy=-5.77660043209145 pbc="F F F"
Os       0.00000000       0.00000000       0.00000000       0.00000000       0.00000000      -0.01339014
Os       0.00000000       0.00000000       5.58848485       0.00000000       0.00000000       0.01339014
2
Properties=species:S:1:pos:R:3:forces:R:3 energy=-5.777323556500886 pbc="F F F"
Os       0.00000000       0.00000000       0.00000000       0.00000000       0.00000000      -0.01124545
Os       0.00000000       0.00000000       5.64727273       0.00000000       0.00000000       0.01124545
2
Properties=species:S:1:pos:R:3:forces:R:3 energy=-5.777936172000538 pbc="F F F"
Os       0.00000000       0.00000000       0.00000000       0.00000000       0.00000000      -0.00970517
Os       0.00000000       0.00000000       5.70606061       0.00000000       0.00000000       0.00970517
2
Properties=species:S:1:pos:R:3:forces:R:3 energy=-5.778455314847393 pbc="F F F"
Os       0.00000000       0.00000000       0.00000000       0.00000000       0.00000000      -0.00745974
Os       0.00000000       0.00000000       5.76484848       0.00000000       0.00000000       0.00745974
2
Properties=species:S:1:pos:R:3:forces:R:3 energy=-5.778744256402034 pbc="F F F"
Os       0.00000000       0.00000000       0.00000000       0.00000000       0.00000000      -0.00180281
Os       0.00000000       0.00000000       5.82363636       0.00000000       0.00000000       0.00180281
2
Properties=species:S:1:pos:R:3:forces:R:3 energy=-5.778635522363728 pbc="F F F"
Os       0.00000000       0.00000000       0.00000000       0.00000000       0.00000000       0.00525989
Os       0.00000000       0.00000000       5.88242424       0.00000000       0.00000000      -0.00525989
2
Properties=species:S:1:pos:R:3:forces:R:3 energy=-5.778171779482599 pbc="F F F"
Os       0.00000000       0.00000000       0.00000000       0.00000000       0.00000000       0.01002225
Os       0.00000000       0.00000000       5.94121212       0.00000000       0.00000000      -0.01002225
2
Properties=species:S:1:pos:R:3:forces:R:3 energy=-5.77752714792506 pbc="F F F"
Os       0.00000000       0.00000000       0.00000000       0.00000000       0.00000000       0.01128462
Os       0.00000000       0.00000000       6.00000000       0.00000000       0.00000000      -0.01128462
