2
Properties=species:S:1:pos:R:3:forces:R:3 energy=8011.268183603786 pbc="F F F"
Pd       0.00000000       0.00000000       0.00000000       0.00000000       0.00000000 -127269.54687500
Pd       0.00000000       0.00000000       0.18000000       0.00000000       0.00000000  127269.54687500
2
Properties=species:S:1:pos:R:3:forces:R:3 energy=3475.7840527444114 pbc="F F F"
Pd       0.00000000       0.00000000       0.00000000       0.00000000       0.00000000  -44132.16796875
Pd       0.00000000       0.00000000       0.23878788       0.00000000       0.00000000   44132.16796875
2
Properties=species:S:1:pos:R:3:forces:R:3 energy=1778.567622080349 pbc="F F F"
Pd       0.00000000       0.00000000       0.00000000       0.00000000       0.00000000  -18056.01757812
Pd       0.00000000       0.00000000       0.29757576       0.00000000       0.00000000   18056.01757812
2
Properties=species:S:1:pos:R:3:forces:R:3 energy=1049.3416699350794 pbc="F F F"
Pd       0.00000000       0.00000000       0.00000000       0.00000000       0.00000000   -8213.96679688
Pd       0.00000000       0.00000000       0.35636364       0.00000000       0.00000000    8213.96679688
2
Properties=species:S:1:pos:R:3:forces:R:3 energy=705.2762402602507 pbc="F F F"
Pd       0.00000000       0.00000000       0.00000000       0.00000000       0.00000000   -4050.94653320
Pd       0.00000000       0.00000000       0.41515152       0.00000000       0.00000000    4050.94653320
2
Properties=species:S:1:pos:R:3:forces:R:3 energy=529.8744458456639 pbc="F F F"
Pd       0.00000000       0.00000000       0.00000000       0.00000000       0.00000000   -2154.29150391
Pd       0.00000000       0.00000000       0.47393939       0.00000000       0.00000000    2154.29150391
2
Properties=species:S:1:pos:R:3:forces:R:3 energy=432.04671760585774 pbc="F F F"
Pd       0.00000000       0.00000000       0.00000000       0.00000000       0.00000000   -1297.03479004
Pd       0.00000000       0.00000000       0.53272727       0.00000000       0.00000000    1297.03479004
2
Properties=species:S:1:pos:R:3:forces:R:3 energy=366.72143080081196 pbc="F F F"
Pd       0.00000000       0.00000000       0.00000000       0.00000000       0.00000000    -985.33160400
Pd       0.00000000       0.00000000       0.59151515       0.00000000       0.00000000     985.33160400
2
Properties=species:S:1:pos:R:3:forces:R:3 energy=309.70888817440505 pbc="F F F"
Pd       0.00000000       0.00000000       0.00000000       0.00000000       0.00000000    -984.41656494
Pd       0.00000000       0.00000000       0.65030303       0.00000000       0.00000000     984.41656494
2
Properties=species:S:1:pos:R:3:forces:R:3 energy=250.13434914189023 pbc="F F F"
Pd       0.00000000       0.00000000       0.00000000       0.00000000       0.00000000   -1041.35729980
Pd       0.00000000       0.00000000       0.70909091       0.00000000       0.00000000    1041.35729980
2
Properties=species:S:1:pos:R:3:forces:R:3 energy=188.44678834748845 pbc="F F F"
Pd       0.00000000       0.00000000       0.00000000       0.00000000       0.00000000   -1038.30981445
Pd       0.00000000       0.00000000       0.76787879       0.00000000       0.00000000    1038.30981445
2
Properties=species:S:1:pos:R:3:forces:R:3 energy=132.81330480606232 pbc="F F F"
Pd       0.00000000       0.00000000       0.00000000       0.00000000       0.00000000    -817.45898438
Pd       0.00000000       0.00000000       0.82666667       0.00000000       0.00000000     817.45898438
2
Properties=species:S:1:pos:R:3:forces:R:3 energy=93.16876642401586 pbc="F F F"
Pd       0.00000000       0.00000000       0.00000000       0.00000000       0.00000000    -543.56134033
Pd       0.00000000       0.00000000       0.88545455       0.00000000       0.00000000     543.56134033
2
Properties=species:S:1:pos:R:3:forces:R:3 energy=66.69263186703049 pbc="F F F"
Pd       0.00000000       0.00000000       0.00000000       0.00000000       0.00000000    -371.33352661
Pd       0.00000000       0.00000000       0.94424242       0.00000000       0.00000000     371.33352661
2
Properties=species:S:1:pos:R:3:forces:R:3 energy=48.44315925827107 pbc="F F F"
Pd       0.00000000       0.00000000       0.00000000       0.00000000       0.00000000    -256.04577637
Pd       0.00000000       0.00000000       1.00303030       0.00000000       0.00000000     256.04577637
2
Properties=species:S:1:pos:R:3:forces:R:3 energy=35.93433715913494 pbc="F F F"
Pd       0.00000000       0.00000000       0.00000000       0.00000000       0.00000000    -174.24433899
Pd       0.00000000       0.00000000       1.06181818       0.00000000       0.00000000     174.24433899
2
Properties=species:S:1:pos:R:3:forces:R:3 energy=27.509846993770328 pbc="F F F"
Pd       0.00000000       0.00000000       0.00000000       0.00000000       0.00000000    -115.42757416
Pd       0.00000000       0.00000000       1.12060606       0.00000000       0.00000000     115.42757416
2
Properties=species:S:1:pos:R:3:forces:R:3 energy=22.03092163695501 pbc="F F F"
Pd       0.00000000       0.00000000       0.00000000       0.00000000       0.00000000     -73.75002289
Pd       0.00000000       0.00000000       1.17939394       0.00000000       0.00000000      73.75002289
2
Properties=species:S:1:pos:R:3:forces:R:3 energy=18.504004229580048 pbc="F F F"
Pd       0.00000000       0.00000000       0.00000000       0.00000000       0.00000000     -49.11259842
Pd       0.00000000       0.00000000       1.23818182       0.00000000       0.00000000      49.11259842
2
Properties=species:S:1:pos:R:3:forces:R:3 energy=15.949887891157156 pbc="F F F"
Pd       0.00000000       0.00000000       0.00000000       0.00000000       0.00000000     -39.85115433
Pd       0.00000000       0.00000000       1.29696970       0.00000000       0.00000000      39.85115433
2
Properties=species:S:1:pos:R:3:forces:R:3 energy=13.659863079119676 pbc="F F F"
Pd       0.00000000       0.00000000       0.00000000       0.00000000       0.00000000     -38.72077560
Pd       0.00000000       0.00000000       1.35575758       0.00000000       0.00000000      38.72077560
2
Properties=species:S:1:pos:R:3:forces:R:3 energy=11.379965559403637 pbc="F F F"
Pd       0.00000000       0.00000000       0.00000000       0.00000000       0.00000000     -38.62595749
Pd       0.00000000       0.00000000       1.41454545       0.00000000       0.00000000      38.62595749
2
Properties=species:S:1:pos:R:3:forces:R:3 energy=9.158872069882857 pbc="F F F"
Pd       0.00000000       0.00000000       0.00000000       0.00000000       0.00000000     -36.59780121
Pd       0.00000000       0.00000000       1.47333333       0.00000000       0.00000000      36.59780121
2
Properties=species:S:1:pos:R:3:forces:R:3 energy=7.101709238567875 pbc="F F F"
Pd       0.00000000       0.00000000       0.00000000       0.00000000       0.00000000     -33.33015823
Pd       0.00000000       0.00000000       1.53212121       0.00000000       0.00000000      33.33015823
2
Properties=species:S:1:pos:R:3:forces:R:3 energy=5.233930823032901 pbc="F F F"
Pd       0.00000000       0.00000000       0.00000000       0.00000000       0.00000000     -30.31556511
Pd       0.00000000       0.00000000       1.59090909       0.00000000       0.00000000      30.31556511
2
Properties=species:S:1:pos:R:3:forces:R:3 energy=3.528456032299657 pbc="F F F"
Pd       0.00000000       0.00000000       0.00000000       0.00000000       0.00000000     -27.72813797
Pd       0.00000000       0.00000000       1.64969697       0.00000000       0.00000000      27.72813797
2
Properties=species:S:1:pos:R:3:forces:R:3 energy=1.9774427581148235 pbc="F F F"
Pd       0.00000000       0.00000000       0.00000000       0.00000000       0.00000000     -24.96958160
Pd       0.00000000       0.00000000       1.70848485       0.00000000       0.00000000      24.96958160
2
Properties=species:S:1:pos:R:3:forces:R:3 energy=0.6017879010920415 pbc="F F F"
Pd       0.00000000       0.00000000       0.00000000       0.00000000       0.00000000     -21.76038933
Pd       0.00000000       0.00000000       1.76727273       0.00000000       0.00000000      21.76038933
2
Properties=species:S:1:pos:R:3:forces:R:3 energy=-0.5755329654384158 pbc="F F F"
Pd       0.00000000       0.00000000       0.00000000       0.00000000       0.00000000     -18.27489662
Pd       0.00000000       0.00000000       1.82606061       0.00000000       0.00000000      18.27489662
2
Properties=species:S:1:pos:R:3:forces:R:3 energy=-1.548375588641146 pbc="F F F"
Pd       0.00000000       0.00000000       0.00000000       0.00000000       0.00000000     -14.86181164
Pd       0.00000000       0.00000000       1.88484848       0.00000000       0.00000000      14.86181164
2
Properties=species:S:1:pos:R:3:forces:R:3 energy=-2.329944848252807 pbc="F F F"
Pd       0.00000000       0.00000000       0.00000000       0.00000000       0.00000000     -11.80123520
Pd       0.00000000       0.00000000       1.94363636       0.00000000       0.00000000      11.80123520
2
Properties=species:S:1:pos:R:3:forces:R:3 energy=-2.945197109416054 pbc="F F F"
Pd       0.00000000       0.00000000       0.00000000       0.00000000       0.00000000      -9.20995235
Pd       0.00000000       0.00000000       2.00242424       0.00000000       0.00000000       9.20995235
2
Properties=species:S:1:pos:R:3:forces:R:3 energy=-3.4218028439180666 pbc="F F F"
Pd       0.00000000       0.00000000       0.00000000       0.00000000       0.00000000      -7.07585001
Pd       0.00000000       0.00000000       2.06121212       0.00000000       0.00000000       7.07585001
2
Properties=species:S:1:pos:R:3:forces:R:3 energy=-3.784829410736581 pbc="F F F"
Pd       0.00000000       0.00000000       0.00000000       0.00000000       0.00000000      -5.33399391
Pd       0.00000000       0.00000000       2.12000000       0.00000000       0.00000000       5.33399391
2
Properties=species:S:1:pos:R:3:forces:R:3 energy=-4.055281642785303 pbc="F F F"
Pd       0.00000000       0.00000000       0.00000000       0.00000000       0.00000000      -3.91560864
Pd       0.00000000       0.00000000       2.17878788       0.00000000       0.00000000       3.91560864
2
Properties=species:S:1:pos:R:3:forces:R:3 energy=-4.250429357599652 pbc="F F F"
Pd       0.00000000       0.00000000       0.00000000       0.00000000       0.00000000      -2.76382709
Pd       0.00000000       0.00000000       2.23757576       0.00000000       0.00000000       2.76382709
2
Properties=species:S:1:pos:R:3:forces:R:3 energy=-4.384573640956457 pbc="F F F"
Pd       0.00000000       0.00000000       0.00000000       0.00000000       0.00000000      -1.83353531
Pd       0.00000000       0.00000000       2.29636364       0.00000000       0.00000000       1.83353531
2
Properties=species:S:1:pos:R:3:forces:R:3 energy=-4.469631349239911 pbc="F F F"
Pd       0.00000000       0.00000000       0.00000000       0.00000000       0.00000000      -1.08838129
Pd       0.00000000       0.00000000       2.35515152       0.00000000       0.00000000       1.08838129
2
Properties=species:S:1:pos:R:3:forces:R:3 energy=-4.515585830347054 pbc="F F F"
Pd       0.00000000       0.00000000       0.00000000       0.00000000       0.00000000      -0.49873197
Pd       0.00000000       0.00000000       2.41393939       0.00000000       0.00000000       0.49873197
2
Properties=species:S:1:pos:R:3:forces:R:3 energy=-4.530826602581626 pbc="F F F"
Pd       0.00000000       0.00000000       0.00000000       0.00000000       0.00000000      -0.03949454
Pd       0.00000000       0.00000000       2.47272727       0.00000000       0.00000000       0.03949454
2
Properties=species:S:1:pos:R:3:forces:R:3 energy=-4.522259451559174 pbc="F F F"
Pd       0.00000000       0.00000000       0.00000000       0.00000000       0.00000000       0.31649822
Pd       0.00000000       0.00000000       2.53151515       0.00000000       0.00000000      -0.31649822
2
Properties=species:S:1:pos:R:3:forces:R:3 energy=-4.49491370376645 pbc="F F F"
Pd       0.00000000       0.00000000       0.00000000       0.00000000       0.00000000       0.60610163
Pd       0.00000000       0.00000000       2.59030303       0.00000000       0.00000000      -0.60610163
2
Properties=species:S:1:pos:R:3:forces:R:3 energy=-4.451695505050591 pbc="F F F"
Pd       0.00000000       0.00000000       0.00000000       0.00000000       0.00000000       0.85832828
Pd       0.00000000       0.00000000       2.64909091       0.00000000       0.00000000      -0.85832828
2
Properties=species:S:1:pos:R:3:forces:R:3 energy=-4.394924433137845 pbc="F F F"
Pd       0.00000000       0.00000000       0.00000000       0.00000000       0.00000000       1.06282663
Pd       0.00000000       0.00000000       2.70787879       0.00000000       0.00000000      -1.06282663
2
Properties=species:S:1:pos:R:3:forces:R:3 energy=-4.328072792288133 pbc="F F F"
Pd       0.00000000       0.00000000       0.00000000       0.00000000       0.00000000       1.20008063
Pd       0.00000000       0.00000000       2.76666667       0.00000000       0.00000000      -1.20008063
2
Properties=species:S:1:pos:R:3:forces:R:3 energy=-4.25503503203112 pbc="F F F"
Pd       0.00000000       0.00000000       0.00000000       0.00000000       0.00000000       1.27579129
Pd       0.00000000       0.00000000       2.82545455       0.00000000       0.00000000      -1.27579129
2
Properties=species:S:1:pos:R:3:forces:R:3 energy=-4.17895627635689 pbc="F F F"
Pd       0.00000000       0.00000000       0.00000000       0.00000000       0.00000000       1.30615783
Pd       0.00000000       0.00000000       2.88424242       0.00000000       0.00000000      -1.30615783
2
Properties=species:S:1:pos:R:3:forces:R:3 energy=-4.102089545619614 pbc="F F F"
Pd       0.00000000       0.00000000       0.00000000       0.00000000       0.00000000       1.30440128
Pd       0.00000000       0.00000000       2.94303030       0.00000000       0.00000000      -1.30440128
2
Properties=species:S:1:pos:R:3:forces:R:3 energy=-4.026031693431894 pbc="F F F"
Pd       0.00000000       0.00000000       0.00000000       0.00000000       0.00000000       1.28003740
Pd       0.00000000       0.00000000       3.00181818       0.00000000       0.00000000      -1.28003740
2
Properties=species:S:1:pos:R:3:forces:R:3 energy=-3.951888356279454 pbc="F F F"
Pd       0.00000000       0.00000000       0.00000000       0.00000000       0.00000000       1.24032378
Pd       0.00000000       0.00000000       3.06060606       0.00000000       0.00000000      -1.24032378
2
Properties=species:S:1:pos:R:3:forces:R:3 energy=-3.8803910587443773 pbc="F F F"
Pd       0.00000000       0.00000000       0.00000000       0.00000000       0.00000000       1.19082999
Pd       0.00000000       0.00000000       3.11939394       0.00000000       0.00000000      -1.19082999
2
Properties=species:S:1:pos:R:3:forces:R:3 energy=-3.811986897674786 pbc="F F F"
Pd       0.00000000       0.00000000       0.00000000       0.00000000       0.00000000       1.13560033
Pd       0.00000000       0.00000000       3.17818182       0.00000000       0.00000000      -1.13560033
2
Properties=species:S:1:pos:R:3:forces:R:3 energy=-3.746930472082571 pbc="F F F"
Pd       0.00000000       0.00000000       0.00000000       0.00000000       0.00000000       1.07733870
Pd       0.00000000       0.00000000       3.23696970       0.00000000       0.00000000      -1.07733870
2
Properties=species:S:1:pos:R:3:forces:R:3 energy=-3.685344545840764 pbc="F F F"
Pd       0.00000000       0.00000000       0.00000000       0.00000000       0.00000000       1.01772141
Pd       0.00000000       0.00000000       3.29575758       0.00000000       0.00000000      -1.01772141
2
Properties=species:S:1:pos:R:3:forces:R:3 energy=-3.6272774985616207 pbc="F F F"
Pd       0.00000000       0.00000000       0.00000000       0.00000000       0.00000000       0.95775199
Pd       0.00000000       0.00000000       3.35454545       0.00000000       0.00000000      -0.95775199
2
Properties=species:S:1:pos:R:3:forces:R:3 energy=-3.5727301488547236 pbc="F F F"
Pd       0.00000000       0.00000000       0.00000000       0.00000000       0.00000000       0.89807403
Pd       0.00000000       0.00000000       3.41333333       0.00000000       0.00000000      -0.89807403
2
Properties=species:S:1:pos:R:3:forces:R:3 energy=-3.521670205161545 pbc="F F F"
Pd       0.00000000       0.00000000       0.00000000       0.00000000       0.00000000       0.83918482
Pd       0.00000000       0.00000000       3.47212121       0.00000000       0.00000000      -0.83918482
2
Properties=species:S:1:pos:R:3:forces:R:3 energy=-3.4740380574934324 pbc="F F F"
Pd       0.00000000       0.00000000       0.00000000       0.00000000       0.00000000       0.78156716
Pd       0.00000000       0.00000000       3.53090909       0.00000000       0.00000000      -0.78156716
2
Properties=species:S:1:pos:R:3:forces:R:3 energy=-3.429741986053356 pbc="F F F"
Pd       0.00000000       0.00000000       0.00000000       0.00000000       0.00000000       0.72572678
Pd       0.00000000       0.00000000       3.58969697       0.00000000       0.00000000      -0.72572678
2
Properties=species:S:1:pos:R:3:forces:R:3 energy=-3.3886642143991423 pbc="F F F"
Pd       0.00000000       0.00000000       0.00000000       0.00000000       0.00000000       0.67219985
Pd       0.00000000       0.00000000       3.64848485       0.00000000       0.00000000      -0.67219985
2
Properties=species:S:1:pos:R:3:forces:R:3 energy=-3.3506524490877774 pbc="F F F"
Pd       0.00000000       0.00000000       0.00000000       0.00000000       0.00000000       0.62149101
Pd       0.00000000       0.00000000       3.70727273       0.00000000       0.00000000      -0.62149101
2
Properties=species:S:1:pos:R:3:forces:R:3 energy=-3.315528072270208 pbc="F F F"
Pd       0.00000000       0.00000000       0.00000000       0.00000000       0.00000000       0.57401586
Pd       0.00000000       0.00000000       3.76606061       0.00000000       0.00000000      -0.57401586
2
Properties=species:S:1:pos:R:3:forces:R:3 energy=-3.2830933766120927 pbc="F F F"
Pd       0.00000000       0.00000000       0.00000000       0.00000000       0.00000000       0.53004497
Pd       0.00000000       0.00000000       3.82484848       0.00000000       0.00000000      -0.53004497
2
Properties=species:S:1:pos:R:3:forces:R:3 energy=-3.253137414052586 pbc="F F F"
Pd       0.00000000       0.00000000       0.00000000       0.00000000       0.00000000       0.48965234
Pd       0.00000000       0.00000000       3.88363636       0.00000000       0.00000000      -0.48965234
2
Properties=species:S:1:pos:R:3:forces:R:3 energy=-3.2254539572252416 pbc="F F F"
Pd       0.00000000       0.00000000       0.00000000       0.00000000       0.00000000       0.45272100
Pd       0.00000000       0.00000000       3.94242424       0.00000000       0.00000000      -0.45272100
2
Properties=species:S:1:pos:R:3:forces:R:3 energy=-3.1998467636736865 pbc="F F F"
Pd       0.00000000       0.00000000       0.00000000       0.00000000       0.00000000       0.41895604
Pd       0.00000000       0.00000000       4.00121212       0.00000000       0.00000000      -0.41895604
2
Properties=species:S:1:pos:R:3:forces:R:3 energy=-3.176141290040219 pbc="F F F"
Pd       0.00000000       0.00000000       0.00000000       0.00000000       0.00000000       0.38793373
Pd       0.00000000       0.00000000       4.06000000       0.00000000       0.00000000      -0.38793373
2
Properties=species:S:1:pos:R:3:forces:R:3 energy=-3.154191044668162 pbc="F F F"
Pd       0.00000000       0.00000000       0.00000000       0.00000000       0.00000000       0.35917330
Pd       0.00000000       0.00000000       4.11878788       0.00000000       0.00000000      -0.35917330
2
Properties=species:S:1:pos:R:3:forces:R:3 energy=-3.133876239453768 pbc="F F F"
Pd       0.00000000       0.00000000       0.00000000       0.00000000       0.00000000       0.33219618
Pd       0.00000000       0.00000000       4.17757576       0.00000000       0.00000000      -0.33219618
2
Properties=species:S:1:pos:R:3:forces:R:3 energy=-3.115105440601254 pbc="F F F"
Pd       0.00000000       0.00000000       0.00000000       0.00000000       0.00000000       0.30659041
Pd       0.00000000       0.00000000       4.23636364       0.00000000       0.00000000      -0.30659041
2
Properties=species:S:1:pos:R:3:forces:R:3 energy=-3.0978075392507645 pbc="F F F"
Pd       0.00000000       0.00000000       0.00000000       0.00000000       0.00000000       0.28204572
Pd       0.00000000       0.00000000       4.29515152       0.00000000       0.00000000      -0.28204572
2
Properties=species:S:1:pos:R:3:forces:R:3 energy=-3.0819268627295466 pbc="F F F"
Pd       0.00000000       0.00000000       0.00000000       0.00000000       0.00000000       0.25837654
Pd       0.00000000       0.00000000       4.35393939       0.00000000       0.00000000      -0.25837654
2
Properties=species:S:1:pos:R:3:forces:R:3 energy=-3.0674135942911938 pbc="F F F"
Pd       0.00000000       0.00000000       0.00000000       0.00000000       0.00000000       0.23550600
Pd       0.00000000       0.00000000       4.41272727       0.00000000       0.00000000      -0.23550600
2
Properties=species:S:1:pos:R:3:forces:R:3 energy=-3.054220864575365 pbc="F F F"
Pd       0.00000000       0.00000000       0.00000000       0.00000000       0.00000000       0.21345380
Pd       0.00000000       0.00000000       4.47151515       0.00000000       0.00000000      -0.21345380
2
Properties=species:S:1:pos:R:3:forces:R:3 energy=-3.042298747625715 pbc="F F F"
Pd       0.00000000       0.00000000       0.00000000       0.00000000       0.00000000       0.19229724
Pd       0.00000000       0.00000000       4.53030303       0.00000000       0.00000000      -0.19229724
2
Properties=species:S:1:pos:R:3:forces:R:3 energy=-3.0315920264236613 pbc="F F F"
Pd       0.00000000       0.00000000       0.00000000       0.00000000       0.00000000       0.17213313
Pd       0.00000000       0.00000000       4.58909091       0.00000000       0.00000000      -0.17213313
2
Properties=species:S:1:pos:R:3:forces:R:3 energy=-3.0220391821932706 pbc="F F F"
Pd       0.00000000       0.00000000       0.00000000       0.00000000       0.00000000       0.15305059
Pd       0.00000000       0.00000000       4.64787879       0.00000000       0.00000000      -0.15305059
2
Properties=species:S:1:pos:R:3:forces:R:3 energy=-3.0135745441682102 pbc="F F F"
Pd       0.00000000       0.00000000       0.00000000       0.00000000       0.00000000       0.13510880
Pd       0.00000000       0.00000000       4.70666667       0.00000000       0.00000000      -0.13510880
2
Properties=species:S:1:pos:R:3:forces:R:3 energy=-3.006130733966159 pbc="F F F"
Pd       0.00000000       0.00000000       0.00000000       0.00000000       0.00000000       0.11833213
Pd       0.00000000       0.00000000       4.76545455       0.00000000       0.00000000      -0.11833213
2
Properties=species:S:1:pos:R:3:forces:R:3 energy=-2.999638583225434 pbc="F F F"
Pd       0.00000000       0.00000000       0.00000000       0.00000000       0.00000000       0.10271458
Pd       0.00000000       0.00000000       4.82424242       0.00000000       0.00000000      -0.10271458
2
Properties=species:S:1:pos:R:3:forces:R:3 energy=-2.994031669893634 pbc="F F F"
Pd       0.00000000       0.00000000       0.00000000       0.00000000       0.00000000       0.08824610
Pd       0.00000000       0.00000000       4.88303030       0.00000000       0.00000000      -0.08824610
2
Properties=species:S:1:pos:R:3:forces:R:3 energy=-2.9892405518322347 pbc="F F F"
Pd       0.00000000       0.00000000       0.00000000       0.00000000       0.00000000       0.07493502
Pd       0.00000000       0.00000000       4.94181818       0.00000000       0.00000000      -0.07493502
2
Properties=species:S:1:pos:R:3:forces:R:3 energy=-2.985196422290826 pbc="F F F"
Pd       0.00000000       0.00000000       0.00000000       0.00000000       0.00000000       0.06287269
Pd       0.00000000       0.00000000       5.00060606       0.00000000       0.00000000      -0.06287269
2
Properties=species:S:1:pos:R:3:forces:R:3 energy=-2.981819986597272 pbc="F F F"
Pd       0.00000000       0.00000000       0.00000000       0.00000000       0.00000000       0.05225090
Pd       0.00000000       0.00000000       5.05939394       0.00000000       0.00000000      -0.05225090
2
Properties=species:S:1:pos:R:3:forces:R:3 energy=-2.979019294215744 pbc="F F F"
Pd       0.00000000       0.00000000       0.00000000       0.00000000       0.00000000       0.04334977
Pd       0.00000000       0.00000000       5.11818182       0.00000000       0.00000000      -0.04334977
2
Properties=species:S:1:pos:R:3:forces:R:3 energy=-2.976684842830332 pbc="F F F"
Pd       0.00000000       0.00000000       0.00000000       0.00000000       0.00000000       0.03640870
Pd       0.00000000       0.00000000       5.17696970       0.00000000       0.00000000      -0.03640870
2
Properties=species:S:1:pos:R:3:forces:R:3 energy=-2.974699690127858 pbc="F F F"
Pd       0.00000000       0.00000000       0.00000000       0.00000000       0.00000000       0.03143535
Pd       0.00000000       0.00000000       5.23575758       0.00000000       0.00000000      -0.03143535
2
Properties=species:S:1:pos:R:3:forces:R:3 energy=-2.972956852018502 pbc="F F F"
Pd       0.00000000       0.00000000       0.00000000       0.00000000       0.00000000       0.02807619
Pd       0.00000000       0.00000000       5.29454545       0.00000000       0.00000000      -0.02807619
2
Properties=species:S:1:pos:R:3:forces:R:3 energy=-2.9713794881875555 pbc="F F F"
Pd       0.00000000       0.00000000       0.00000000       0.00000000       0.00000000       0.02569031
Pd       0.00000000       0.00000000       5.35333333       0.00000000       0.00000000      -0.02569031
2
Properties=species:S:1:pos:R:3:forces:R:3 energy=-2.9699342836301623 pbc="F F F"
Pd       0.00000000       0.00000000       0.00000000       0.00000000       0.00000000       0.02339105
Pd       0.00000000       0.00000000       5.41212121       0.00000000       0.00000000      -0.02339105
2
Properties=species:S:1:pos:R:3:forces:R:3 energy=-2.968651273823338 pbc="F F F"
Pd       0.00000000       0.00000000       0.00000000       0.00000000       0.00000000       0.01999897
Pd       0.00000000       0.00000000       5.47090909       0.00000000       0.00000000      -0.01999897
2
Properties=species:S:1:pos:R:3:forces:R:3 energy=-2.9676065352043595 pbc="F F F"
Pd       0.00000000       0.00000000       0.00000000       0.00000000       0.00000000       0.01551535
Pd       0.00000000       0.00000000       5.52969697       0.00000000       0.00000000      -0.01551535
2
Properties=species:S:1:pos:R:3:forces:R:3 energy=-2.96680614501483 pbc="F F F"
Pd       0.00000000       0.00000000       0.00000000       0.00000000       0.00000000       0.01199515
Pd       0.00000000       0.00000000       5.58848485       0.00000000       0.00000000      -0.01199515
2
Properties=species:S:1:pos:R:3:forces:R:3 energy=-2.966174500374216 pbc="F F F"
Pd       0.00000000       0.00000000       0.00000000       0.00000000       0.00000000       0.00946090
Pd       0.00000000       0.00000000       5.64727273       0.00000000       0.00000000      -0.00946090
2
Properties=species:S:1:pos:R:3:forces:R:3 energy=-2.965726030341951 pbc="F F F"
Pd       0.00000000       0.00000000       0.00000000       0.00000000       0.00000000       0.00534498
Pd       0.00000000       0.00000000       5.70606061       0.00000000       0.00000000      -0.00534498
2
Properties=species:S:1:pos:R:3:forces:R:3 energy=-2.9655981721251754 pbc="F F F"
Pd       0.00000000       0.00000000       0.00000000       0.00000000       0.00000000      -0.00108943
Pd       0.00000000       0.00000000       5.76484848       0.00000000       0.00000000       0.00108943
2
Properties=species:S:1:pos:R:3:forces:R:3 energy=-2.965795301605225 pbc="F F F"
Pd       0.00000000       0.00000000       0.00000000       0.00000000       0.00000000      -0.00447683
Pd       0.00000000       0.00000000       5.82363636       0.00000000       0.00000000       0.00447683
2
Properties=species:S:1:pos:R:3:forces:R:3 energy=-2.9659560605630935 pbc="F F F"
Pd       0.00000000       0.00000000       0.00000000       0.00000000       0.00000000       0.00006549
Pd       0.00000000       0.00000000       5.88242424       0.00000000       0.00000000      -0.00006549
2
Properties=species:S:1:pos:R:3:forces:R:3 energy=-2.9657296295065425 pbc="F F F"
Pd       0.00000000       0.00000000       0.00000000       0.00000000       0.00000000       0.00747962
Pd       0.00000000       0.00000000       5.94121212       0.00000000       0.00000000      -0.00747962
2
Properties=species:S:1:pos:R:3:forces:R:3 energy=-2.965171969053147 pbc="F F F"
Pd       0.00000000       0.00000000       0.00000000       0.00000000       0.00000000       0.01034850
Pd       0.00000000       0.00000000       6.00000000       0.00000000       0.00000000      -0.01034850
