2
Properties=species:S:1:pos:R:3:forces:R:3 energy=18093.057613780707 pbc="F F F"
Re       0.00000000       0.00000000       0.00000000       0.00000000       0.00000000 -265252.68750000
Re       0.00000000       0.00000000       0.18000000       0.00000000       0.00000000  265252.68750000
2
Properties=species:S:1:pos:R:3:forces:R:3 energy=8797.519527843206 pbc="F F F"
Re       0.00000000       0.00000000       0.00000000       0.00000000       0.00000000  -88730.73437500
Re       0.00000000       0.00000000       0.23878788       0.00000000       0.00000000   88730.73437500
2
Properties=species:S:1:pos:R:3:forces:R:3 energy=5416.219234874456 pbc="F F F"
Re       0.00000000       0.00000000       0.00000000       0.00000000       0.00000000  -35561.71093750
Re       0.00000000       0.00000000       0.29757576       0.00000000       0.00000000   35561.71093750
2
Properties=species:S:1:pos:R:3:forces:R:3 energy=3941.3215297963307 pbc="F F F"
Re       0.00000000       0.00000000       0.00000000       0.00000000       0.00000000  -17717.15234375
Re       0.00000000       0.00000000       0.35636364       0.00000000       0.00000000   17717.15234375
2
Properties=species:S:1:pos:R:3:forces:R:3 energy=3103.7375454276666 pbc="F F F"
Re       0.00000000       0.00000000       0.00000000       0.00000000       0.00000000  -11977.04687500
Re       0.00000000       0.00000000       0.41515152       0.00000000       0.00000000   11977.04687500
2
Properties=species:S:1:pos:R:3:forces:R:3 energy=2441.945797387127 pbc="F F F"
Re       0.00000000       0.00000000       0.00000000       0.00000000       0.00000000  -10997.52441406
Re       0.00000000       0.00000000       0.47393939       0.00000000       0.00000000   10997.52441406
2
Properties=species:S:1:pos:R:3:forces:R:3 energy=1784.247189001361 pbc="F F F"
Re       0.00000000       0.00000000       0.00000000       0.00000000       0.00000000  -11391.36621094
Re       0.00000000       0.00000000       0.53272727       0.00000000       0.00000000   11391.36621094
2
Properties=species:S:1:pos:R:3:forces:R:3 energy=1170.4195523047856 pbc="F F F"
Re       0.00000000       0.00000000       0.00000000       0.00000000       0.00000000    1387.70263672
Re       0.00000000       0.00000000       0.59151515       0.00000000       0.00000000   -1387.70263672
2
Properties=species:S:1:pos:R:3:forces:R:3 energy=1244.1927457053423 pbc="F F F"
Re       0.00000000       0.00000000       0.00000000       0.00000000       0.00000000     320.65933228
Re       0.00000000       0.00000000       0.65030303       0.00000000       0.00000000    -320.65933228
2
Properties=species:S:1:pos:R:3:forces:R:3 energy=1085.940548496738 pbc="F F F"
Re       0.00000000       0.00000000       0.00000000       0.00000000       0.00000000   -4473.55957031
Re       0.00000000       0.00000000       0.70909091       0.00000000       0.00000000    4473.55957031
2
Properties=species:S:1:pos:R:3:forces:R:3 energy=848.9472624526247 pbc="F F F"
Re       0.00000000       0.00000000       0.00000000       0.00000000       0.00000000   -3630.05664062
Re       0.00000000       0.00000000       0.76787879       0.00000000       0.00000000    3630.05664062
2
Properties=species:S:1:pos:R:3:forces:R:3 energy=658.4636200138839 pbc="F F F"
Re       0.00000000       0.00000000       0.00000000       0.00000000       0.00000000   -2879.44067383
Re       0.00000000       0.00000000       0.82666667       0.00000000       0.00000000    2879.44067383
2
Properties=species:S:1:pos:R:3:forces:R:3 energy=505.88988973837104 pbc="F F F"
Re       0.00000000       0.00000000       0.00000000       0.00000000       0.00000000   -2394.10961914
Re       0.00000000       0.00000000       0.88545455       0.00000000       0.00000000    2394.10961914
2
Properties=species:S:1:pos:R:3:forces:R:3 energy=380.13198595490155 pbc="F F F"
Re       0.00000000       0.00000000       0.00000000       0.00000000       0.00000000   -1911.43139648
Re       0.00000000       0.00000000       0.94424242       0.00000000       0.00000000    1911.43139648
2
Properties=species:S:1:pos:R:3:forces:R:3 energy=283.4110695806577 pbc="F F F"
Re       0.00000000       0.00000000       0.00000000       0.00000000       0.00000000   -1333.37744141
Re       0.00000000       0.00000000       1.00303030       0.00000000       0.00000000    1333.37744141
2
Properties=species:S:1:pos:R:3:forces:R:3 energy=218.8675520147673 pbc="F F F"
Re       0.00000000       0.00000000       0.00000000       0.00000000       0.00000000    -925.94677734
Re       0.00000000       0.00000000       1.06181818       0.00000000       0.00000000     925.94677734
2
Properties=species:S:1:pos:R:3:forces:R:3 energy=171.49401753009562 pbc="F F F"
Re       0.00000000       0.00000000       0.00000000       0.00000000       0.00000000    -670.48657227
Re       0.00000000       0.00000000       1.12060606       0.00000000       0.00000000     670.48657227
2
Properties=species:S:1:pos:R:3:forces:R:3 energy=140.24148544543016 pbc="F F F"
Re       0.00000000       0.00000000       0.00000000       0.00000000       0.00000000    -453.79815674
Re       0.00000000       0.00000000       1.17939394       0.00000000       0.00000000     453.79815674
2
Properties=species:S:1:pos:R:3:forces:R:3 energy=114.02551367595204 pbc="F F F"
Re       0.00000000       0.00000000       0.00000000       0.00000000       0.00000000    -439.77172852
Re       0.00000000       0.00000000       1.23818182       0.00000000       0.00000000     439.77172852
2
Properties=species:S:1:pos:R:3:forces:R:3 energy=89.0666146719866 pbc="F F F"
Re       0.00000000       0.00000000       0.00000000       0.00000000       0.00000000    -409.23483276
Re       0.00000000       0.00000000       1.29696970       0.00000000       0.00000000     409.23483276
2
Properties=species:S:1:pos:R:3:forces:R:3 energy=65.77414366363233 pbc="F F F"
Re       0.00000000       0.00000000       0.00000000       0.00000000       0.00000000    -382.08938599
Re       0.00000000       0.00000000       1.35575758       0.00000000       0.00000000     382.08938599
2
Properties=species:S:1:pos:R:3:forces:R:3 energy=44.60136305918635 pbc="F F F"
Re       0.00000000       0.00000000       0.00000000       0.00000000       0.00000000    -332.65066528
Re       0.00000000       0.00000000       1.41454545       0.00000000       0.00000000     332.65066528
2
Properties=species:S:1:pos:R:3:forces:R:3 energy=27.18934236591476 pbc="F F F"
Re       0.00000000       0.00000000       0.00000000       0.00000000       0.00000000    -257.46398926
Re       0.00000000       0.00000000       1.47333333       0.00000000       0.00000000     257.46398926
2
Properties=species:S:1:pos:R:3:forces:R:3 energy=14.305360359620343 pbc="F F F"
Re       0.00000000       0.00000000       0.00000000       0.00000000       0.00000000    -183.00039673
Re       0.00000000       0.00000000       1.53212121       0.00000000       0.00000000     183.00039673
2
Properties=species:S:1:pos:R:3:forces:R:3 energy=5.319074677159832 pbc="F F F"
Re       0.00000000       0.00000000       0.00000000       0.00000000       0.00000000    -126.00381470
Re       0.00000000       0.00000000       1.59090909       0.00000000       0.00000000     126.00381470
2
Properties=species:S:1:pos:R:3:forces:R:3 energy=-0.864827582608967 pbc="F F F"
Re       0.00000000       0.00000000       0.00000000       0.00000000       0.00000000     -86.96522522
Re       0.00000000       0.00000000       1.64969697       0.00000000       0.00000000      86.96522522
2
Properties=species:S:1:pos:R:3:forces:R:3 energy=-5.152665071565545 pbc="F F F"
Re       0.00000000       0.00000000       0.00000000       0.00000000       0.00000000     -60.56177521
Re       0.00000000       0.00000000       1.70848485       0.00000000       0.00000000      60.56177521
2
Properties=species:S:1:pos:R:3:forces:R:3 energy=-8.13992702873379 pbc="F F F"
Re       0.00000000       0.00000000       0.00000000       0.00000000       0.00000000     -42.11547852
Re       0.00000000       0.00000000       1.76727273       0.00000000       0.00000000      42.11547852
2
Properties=species:S:1:pos:R:3:forces:R:3 energy=-10.206111834493882 pbc="F F F"
Re       0.00000000       0.00000000       0.00000000       0.00000000       0.00000000     -28.89372253
Re       0.00000000       0.00000000       1.82606061       0.00000000       0.00000000      28.89372253
2
Properties=species:S:1:pos:R:3:forces:R:3 energy=-11.608041045203343 pbc="F F F"
Re       0.00000000       0.00000000       0.00000000       0.00000000       0.00000000     -19.30587578
Re       0.00000000       0.00000000       1.88484848       0.00000000       0.00000000      19.30587578
2
Properties=species:S:1:pos:R:3:forces:R:3 energy=-12.526056615862066 pbc="F F F"
Re       0.00000000       0.00000000       0.00000000       0.00000000       0.00000000     -12.28249836
Re       0.00000000       0.00000000       1.94363636       0.00000000       0.00000000      12.28249836
2
Properties=species:S:1:pos:R:3:forces:R:3 energy=-13.087733676200608 pbc="F F F"
Re       0.00000000       0.00000000       0.00000000       0.00000000       0.00000000      -7.08301878
Re       0.00000000       0.00000000       2.00242424       0.00000000       0.00000000       7.08301878
2
Properties=species:S:1:pos:R:3:forces:R:3 energy=-13.385084545923434 pbc="F F F"
Re       0.00000000       0.00000000       0.00000000       0.00000000       0.00000000      -3.22870111
Re       0.00000000       0.00000000       2.06121212       0.00000000       0.00000000       3.22870111
2
Properties=species:S:1:pos:R:3:forces:R:3 energy=-13.487877094312795 pbc="F F F"
Re       0.00000000       0.00000000       0.00000000       0.00000000       0.00000000      -0.42428869
Re       0.00000000       0.00000000       2.12000000       0.00000000       0.00000000       0.42428869
2
Properties=species:S:1:pos:R:3:forces:R:3 energy=-13.451353853005648 pbc="F F F"
Re       0.00000000       0.00000000       0.00000000       0.00000000       0.00000000       1.54319191
Re       0.00000000       0.00000000       2.17878788       0.00000000       0.00000000      -1.54319191
2
Properties=species:S:1:pos:R:3:forces:R:3 energy=-13.319257381212008 pbc="F F F"
Re       0.00000000       0.00000000       0.00000000       0.00000000       0.00000000       2.85544562
Re       0.00000000       0.00000000       2.23757576       0.00000000       0.00000000      -2.85544562
2
Properties=species:S:1:pos:R:3:forces:R:3 energy=-13.125384903578478 pbc="F F F"
Re       0.00000000       0.00000000       0.00000000       0.00000000       0.00000000       3.66864657
Re       0.00000000       0.00000000       2.29636364       0.00000000       0.00000000      -3.66864657
2
Properties=species:S:1:pos:R:3:forces:R:3 energy=-12.895113555210381 pbc="F F F"
Re       0.00000000       0.00000000       0.00000000       0.00000000       0.00000000       4.11373758
Re       0.00000000       0.00000000       2.35515152       0.00000000       0.00000000      -4.11373758
2
Properties=species:S:1:pos:R:3:forces:R:3 energy=-12.646750356208392 pbc="F F F"
Re       0.00000000       0.00000000       0.00000000       0.00000000       0.00000000       4.30097342
Re       0.00000000       0.00000000       2.41393939       0.00000000       0.00000000      -4.30097342
2
Properties=species:S:1:pos:R:3:forces:R:3 energy=-12.392702382086657 pbc="F F F"
Re       0.00000000       0.00000000       0.00000000       0.00000000       0.00000000       4.32008266
Re       0.00000000       0.00000000       2.47272727       0.00000000       0.00000000      -4.32008266
2
Properties=species:S:1:pos:R:3:forces:R:3 energy=-12.140812502247387 pbc="F F F"
Re       0.00000000       0.00000000       0.00000000       0.00000000       0.00000000       4.23617554
Re       0.00000000       0.00000000       2.53151515       0.00000000       0.00000000      -4.23617554
2
Properties=species:S:1:pos:R:3:forces:R:3 energy=-11.895846292698128 pbc="F F F"
Re       0.00000000       0.00000000       0.00000000       0.00000000       0.00000000       4.08970785
Re       0.00000000       0.00000000       2.59030303       0.00000000       0.00000000      -4.08970785
2
Properties=species:S:1:pos:R:3:forces:R:3 energy=-11.660732342619314 pbc="F F F"
Re       0.00000000       0.00000000       0.00000000       0.00000000       0.00000000       3.90373039
Re       0.00000000       0.00000000       2.64909091       0.00000000       0.00000000      -3.90373039
2
Properties=species:S:1:pos:R:3:forces:R:3 energy=-11.43733440046766 pbc="F F F"
Re       0.00000000       0.00000000       0.00000000       0.00000000       0.00000000       3.69350767
Re       0.00000000       0.00000000       2.70787879       0.00000000       0.00000000      -3.69350767
2
Properties=species:S:1:pos:R:3:forces:R:3 energy=-11.226673855620081 pbc="F F F"
Re       0.00000000       0.00000000       0.00000000       0.00000000       0.00000000       3.47264862
Re       0.00000000       0.00000000       2.76666667       0.00000000       0.00000000      -3.47264862
2
Properties=species:S:1:pos:R:3:forces:R:3 energy=-11.02897431967391 pbc="F F F"
Re       0.00000000       0.00000000       0.00000000       0.00000000       0.00000000       3.25479388
Re       0.00000000       0.00000000       2.82545455       0.00000000       0.00000000      -3.25479388
2
Properties=species:S:1:pos:R:3:forces:R:3 energy=-10.843739207895554 pbc="F F F"
Re       0.00000000       0.00000000       0.00000000       0.00000000       0.00000000       3.04917479
Re       0.00000000       0.00000000       2.88424242       0.00000000       0.00000000      -3.04917479
2
Properties=species:S:1:pos:R:3:forces:R:3 energy=-10.6703382096312 pbc="F F F"
Re       0.00000000       0.00000000       0.00000000       0.00000000       0.00000000       2.84960151
Re       0.00000000       0.00000000       2.94303030       0.00000000       0.00000000      -2.84960151
2
Properties=species:S:1:pos:R:3:forces:R:3 energy=-10.508907080070781 pbc="F F F"
Re       0.00000000       0.00000000       0.00000000       0.00000000       0.00000000       2.63970280
Re       0.00000000       0.00000000       3.00181818       0.00000000       0.00000000      -2.63970280
2
Properties=species:S:1:pos:R:3:forces:R:3 energy=-10.36029240756761 pbc="F F F"
Re       0.00000000       0.00000000       0.00000000       0.00000000       0.00000000       2.41401052
Re       0.00000000       0.00000000       3.06060606       0.00000000       0.00000000      -2.41401052
2
Properties=species:S:1:pos:R:3:forces:R:3 energy=-10.22522979217744 pbc="F F F"
Re       0.00000000       0.00000000       0.00000000       0.00000000       0.00000000       2.18067479
Re       0.00000000       0.00000000       3.11939394       0.00000000       0.00000000      -2.18067479
2
Properties=species:S:1:pos:R:3:forces:R:3 energy=-10.103810414399732 pbc="F F F"
Re       0.00000000       0.00000000       0.00000000       0.00000000       0.00000000       1.95173323
Re       0.00000000       0.00000000       3.17818182       0.00000000       0.00000000      -1.95173323
2
Properties=species:S:1:pos:R:3:forces:R:3 energy=-9.995477149000761 pbc="F F F"
Re       0.00000000       0.00000000       0.00000000       0.00000000       0.00000000       1.73669374
Re       0.00000000       0.00000000       3.23696970       0.00000000       0.00000000      -1.73669374
2
Properties=species:S:1:pos:R:3:forces:R:3 energy=-9.899248048763928 pbc="F F F"
Re       0.00000000       0.00000000       0.00000000       0.00000000       0.00000000       1.54033113
Re       0.00000000       0.00000000       3.29575758       0.00000000       0.00000000      -1.54033113
2
Properties=species:S:1:pos:R:3:forces:R:3 energy=-9.813996962426929 pbc="F F F"
Re       0.00000000       0.00000000       0.00000000       0.00000000       0.00000000       1.36296701
Re       0.00000000       0.00000000       3.35454545       0.00000000       0.00000000      -1.36296701
2
Properties=species:S:1:pos:R:3:forces:R:3 energy=-9.738672351358469 pbc="F F F"
Re       0.00000000       0.00000000       0.00000000       0.00000000       0.00000000       1.20208871
Re       0.00000000       0.00000000       3.41333333       0.00000000       0.00000000      -1.20208871
2
Properties=species:S:1:pos:R:3:forces:R:3 energy=-9.672404467909654 pbc="F F F"
Re       0.00000000       0.00000000       0.00000000       0.00000000       0.00000000       1.05430186
Re       0.00000000       0.00000000       3.47212121       0.00000000       0.00000000      -1.05430186
2
Properties=species:S:1:pos:R:3:forces:R:3 energy=-9.614511701361016 pbc="F F F"
Re       0.00000000       0.00000000       0.00000000       0.00000000       0.00000000       0.91683304
Re       0.00000000       0.00000000       3.53090909       0.00000000       0.00000000      -0.91683304
2
Properties=species:S:1:pos:R:3:forces:R:3 energy=-9.564433513281756 pbc="F F F"
Re       0.00000000       0.00000000       0.00000000       0.00000000       0.00000000       0.78827298
Re       0.00000000       0.00000000       3.58969697       0.00000000       0.00000000      -0.78827298
2
Properties=species:S:1:pos:R:3:forces:R:3 energy=-9.521654888182496 pbc="F F F"
Re       0.00000000       0.00000000       0.00000000       0.00000000       0.00000000       0.66862655
Re       0.00000000       0.00000000       3.64848485       0.00000000       0.00000000      -0.66862655
2
Properties=species:S:1:pos:R:3:forces:R:3 energy=-9.485626795080677 pbc="F F F"
Re       0.00000000       0.00000000       0.00000000       0.00000000       0.00000000       0.55885154
Re       0.00000000       0.00000000       3.70727273       0.00000000       0.00000000      -0.55885154
2
Properties=species:S:1:pos:R:3:forces:R:3 energy=-9.455729637429972 pbc="F F F"
Re       0.00000000       0.00000000       0.00000000       0.00000000       0.00000000       0.46020782
Re       0.00000000       0.00000000       3.76606061       0.00000000       0.00000000      -0.46020782
2
Properties=species:S:1:pos:R:3:forces:R:3 energy=-9.431279133557291 pbc="F F F"
Re       0.00000000       0.00000000       0.00000000       0.00000000       0.00000000       0.37367141
Re       0.00000000       0.00000000       3.82484848       0.00000000       0.00000000      -0.37367141
2
Properties=species:S:1:pos:R:3:forces:R:3 energy=-9.41155126425047 pbc="F F F"
Re       0.00000000       0.00000000       0.00000000       0.00000000       0.00000000       0.29953411
Re       0.00000000       0.00000000       3.88363636       0.00000000       0.00000000      -0.29953411
2
Properties=species:S:1:pos:R:3:forces:R:3 energy=-9.395826968738254 pbc="F F F"
Re       0.00000000       0.00000000       0.00000000       0.00000000       0.00000000       0.23730747
Re       0.00000000       0.00000000       3.94242424       0.00000000       0.00000000      -0.23730747
2
Properties=species:S:1:pos:R:3:forces:R:3 energy=-9.383438893738736 pbc="F F F"
Re       0.00000000       0.00000000       0.00000000       0.00000000       0.00000000       0.18583176
Re       0.00000000       0.00000000       4.00121212       0.00000000       0.00000000      -0.18583176
2
Properties=species:S:1:pos:R:3:forces:R:3 energy=-9.373798324423413 pbc="F F F"
Re       0.00000000       0.00000000       0.00000000       0.00000000       0.00000000       0.14352366
Re       0.00000000       0.00000000       4.06000000       0.00000000       0.00000000      -0.14352366
2
Properties=species:S:1:pos:R:3:forces:R:3 energy=-9.366417996573043 pbc="F F F"
Re       0.00000000       0.00000000       0.00000000       0.00000000       0.00000000       0.10866694
Re       0.00000000       0.00000000       4.11878788       0.00000000       0.00000000      -0.10866694
2
Properties=species:S:1:pos:R:3:forces:R:3 energy=-9.360907337709536 pbc="F F F"
Re       0.00000000       0.00000000       0.00000000       0.00000000       0.00000000       0.07964330
Re       0.00000000       0.00000000       4.17757576       0.00000000       0.00000000      -0.07964330
2
Properties=species:S:1:pos:R:3:forces:R:3 energy=-9.356965987780702 pbc="F F F"
Re       0.00000000       0.00000000       0.00000000       0.00000000       0.00000000       0.05510456
Re       0.00000000       0.00000000       4.23636364       0.00000000       0.00000000      -0.05510456
2
Properties=species:S:1:pos:R:3:forces:R:3 energy=-9.354360584690992 pbc="F F F"
Re       0.00000000       0.00000000       0.00000000       0.00000000       0.00000000       0.03404012
Re       0.00000000       0.00000000       4.29515152       0.00000000       0.00000000      -0.03404012
2
Properties=species:S:1:pos:R:3:forces:R:3 energy=-9.352908950983693 pbc="F F F"
Re       0.00000000       0.00000000       0.00000000       0.00000000       0.00000000       0.01577447
Re       0.00000000       0.00000000       4.35393939       0.00000000       0.00000000      -0.01577447
2
Properties=species:S:1:pos:R:3:forces:R:3 energy=-9.35245982909363 pbc="F F F"
Re       0.00000000       0.00000000       0.00000000       0.00000000       0.00000000      -0.00009941
Re       0.00000000       0.00000000       4.41272727       0.00000000       0.00000000       0.00009941
2
Properties=species:S:1:pos:R:3:forces:R:3 energy=-9.352878671267092 pbc="F F F"
Re       0.00000000       0.00000000       0.00000000       0.00000000       0.00000000      -0.01380082
Re       0.00000000       0.00000000       4.47151515       0.00000000       0.00000000       0.01380082
2
Properties=species:S:1:pos:R:3:forces:R:3 energy=-9.354041857327296 pbc="F F F"
Re       0.00000000       0.00000000       0.00000000       0.00000000       0.00000000      -0.02545315
Re       0.00000000       0.00000000       4.53030303       0.00000000       0.00000000       0.02545315
2
Properties=species:S:1:pos:R:3:forces:R:3 energy=-9.355832822956334 pbc="F F F"
Re       0.00000000       0.00000000       0.00000000       0.00000000       0.00000000      -0.03514728
Re       0.00000000       0.00000000       4.58909091       0.00000000       0.00000000       0.03514728
2
Properties=species:S:1:pos:R:3:forces:R:3 energy=-9.358137383190432 pbc="F F F"
Re       0.00000000       0.00000000       0.00000000       0.00000000       0.00000000      -0.04297534
Re       0.00000000       0.00000000       4.64787879       0.00000000       0.00000000       0.04297534
2
Properties=species:S:1:pos:R:3:forces:R:3 energy=-9.360851117892176 pbc="F F F"
Re       0.00000000       0.00000000       0.00000000       0.00000000       0.00000000      -0.04903646
Re       0.00000000       0.00000000       4.70666667       0.00000000       0.00000000       0.04903646
2
Properties=species:S:1:pos:R:3:forces:R:3 energy=-9.363870807688594 pbc="F F F"
Re       0.00000000       0.00000000       0.00000000       0.00000000       0.00000000      -0.05343322
Re       0.00000000       0.00000000       4.76545455       0.00000000       0.00000000       0.05343322
2
Properties=species:S:1:pos:R:3:forces:R:3 energy=-9.36710299486525 pbc="F F F"
Re       0.00000000       0.00000000       0.00000000       0.00000000       0.00000000      -0.05627040
Re       0.00000000       0.00000000       4.82424242       0.00000000       0.00000000       0.05627040
2
Properties=species:S:1:pos:R:3:forces:R:3 energy=-9.370458178956973 pbc="F F F"
Re       0.00000000       0.00000000       0.00000000       0.00000000       0.00000000      -0.05766324
Re       0.00000000       0.00000000       4.88303030       0.00000000       0.00000000       0.05766324
2
Properties=species:S:1:pos:R:3:forces:R:3 energy=-9.373857324573493 pbc="F F F"
Re       0.00000000       0.00000000       0.00000000       0.00000000       0.00000000      -0.05778486
Re       0.00000000       0.00000000       4.94181818       0.00000000       0.00000000       0.05778486
2
Properties=species:S:1:pos:R:3:forces:R:3 energy=-9.377232799234648 pbc="F F F"
Re       0.00000000       0.00000000       0.00000000       0.00000000       0.00000000      -0.05692302
Re       0.00000000       0.00000000       5.00060606       0.00000000       0.00000000       0.05692302
2
Properties=species:S:1:pos:R:3:forces:R:3 energy=-9.380539792119606 pbc="F F F"
Re       0.00000000       0.00000000       0.00000000       0.00000000       0.00000000      -0.05553116
Re       0.00000000       0.00000000       5.05939394       0.00000000       0.00000000       0.05553116
2
Properties=species:S:1:pos:R:3:forces:R:3 energy=-9.383762828228152 pbc="F F F"
Re       0.00000000       0.00000000       0.00000000       0.00000000       0.00000000      -0.05417919
Re       0.00000000       0.00000000       5.11818182       0.00000000       0.00000000       0.05417919
2
Properties=species:S:1:pos:R:3:forces:R:3 energy=-9.386919564071013 pbc="F F F"
Re       0.00000000       0.00000000       0.00000000       0.00000000       0.00000000      -0.05331999
Re       0.00000000       0.00000000       5.17696970       0.00000000       0.00000000       0.05331999
2
Properties=species:S:1:pos:R:3:forces:R:3 energy=-9.390039784660146 pbc="F F F"
Re       0.00000000       0.00000000       0.00000000       0.00000000       0.00000000      -0.05283775
Re       0.00000000       0.00000000       5.23575758       0.00000000       0.00000000       0.05283775
2
Properties=species:S:1:pos:R:3:forces:R:3 energy=-9.393118556257823 pbc="F F F"
Re       0.00000000       0.00000000       0.00000000       0.00000000       0.00000000      -0.05162792
Re       0.00000000       0.00000000       5.29454545       0.00000000       0.00000000       0.05162792
2
Properties=species:S:1:pos:R:3:forces:R:3 energy=-9.39606479131997 pbc="F F F"
Re       0.00000000       0.00000000       0.00000000       0.00000000       0.00000000      -0.04818026
Re       0.00000000       0.00000000       5.35333333       0.00000000       0.00000000       0.04818026
2
Properties=species:S:1:pos:R:3:forces:R:3 energy=-9.398756463404052 pbc="F F F"
Re       0.00000000       0.00000000       0.00000000       0.00000000       0.00000000      -0.04360338
Re       0.00000000       0.00000000       5.41212121       0.00000000       0.00000000       0.04360338
2
Properties=species:S:1:pos:R:3:forces:R:3 energy=-9.401282848364977 pbc="F F F"
Re       0.00000000       0.00000000       0.00000000       0.00000000       0.00000000      -0.04348001
Re       0.00000000       0.00000000       5.47090909       0.00000000       0.00000000       0.04348001
2
Properties=species:S:1:pos:R:3:forces:R:3 energy=-9.403958850060702 pbc="F F F"
Re       0.00000000       0.00000000       0.00000000       0.00000000       0.00000000      -0.04733286
Re       0.00000000       0.00000000       5.52969697       0.00000000       0.00000000       0.04733286
2
Properties=species:S:1:pos:R:3:forces:R:3 energy=-9.406708942582936 pbc="F F F"
Re       0.00000000       0.00000000       0.00000000       0.00000000       0.00000000      -0.04466312
Re       0.00000000       0.00000000       5.58848485       0.00000000       0.00000000       0.04466312
2
Properties=species:S:1:pos:R:3:forces:R:3 energy=-9.409081440525842 pbc="F F F"
Re       0.00000000       0.00000000       0.00000000       0.00000000       0.00000000      -0.03597434
Re       0.00000000       0.00000000       5.64727273       0.00000000       0.00000000       0.03597434
2
Properties=species:S:1:pos:R:3:forces:R:3 energy=-9.411051535526056 pbc="F F F"
Re       0.00000000       0.00000000       0.00000000       0.00000000       0.00000000      -0.03293496
Re       0.00000000       0.00000000       5.70606061       0.00000000       0.00000000       0.03293496
2
Properties=species:S:1:pos:R:3:forces:R:3 energy=-9.413198739874156 pbc="F F F"
Re       0.00000000       0.00000000       0.00000000       0.00000000       0.00000000      -0.04094760
Re       0.00000000       0.00000000       5.76484848       0.00000000       0.00000000       0.04094760
2
Properties=species:S:1:pos:R:3:forces:R:3 energy=-9.415722683532751 pbc="F F F"
Re       0.00000000       0.00000000       0.00000000       0.00000000       0.00000000      -0.04164896
Re       0.00000000       0.00000000       5.82363636       0.00000000       0.00000000       0.04164896
2
Properties=species:S:1:pos:R:3:forces:R:3 energy=-9.417643006727598 pbc="F F F"
Re       0.00000000       0.00000000       0.00000000       0.00000000       0.00000000      -0.02128145
Re       0.00000000       0.00000000       5.88242424       0.00000000       0.00000000       0.02128145
2
Properties=species:S:1:pos:R:3:forces:R:3 energy=-9.418134580018299 pbc="F F F"
Re       0.00000000       0.00000000       0.00000000       0.00000000       0.00000000       0.00359590
Re       0.00000000       0.00000000       5.94121212       0.00000000       0.00000000      -0.00359590
2
Properties=species:S:1:pos:R:3:forces:R:3 energy=-9.417528838571862 pbc="F F F"
Re       0.00000000       0.00000000       0.00000000       0.00000000       0.00000000       0.01352419
Re       0.00000000       0.00000000       6.00000000       0.00000000       0.00000000      -0.01352419
