2
Properties=species:S:1:pos:R:3:forces:R:3 energy=8532.996641683829 pbc="F F F"
Rh       0.00000000       0.00000000       0.00000000       0.00000000       0.00000000 -123099.75000000
Rh       0.00000000       0.00000000       0.18000000       0.00000000       0.00000000  123099.75000000
2
Properties=species:S:1:pos:R:3:forces:R:3 energy=4140.97466902758 pbc="F F F"
Rh       0.00000000       0.00000000       0.00000000       0.00000000       0.00000000  -42820.67187500
Rh       0.00000000       0.00000000       0.23878788       0.00000000       0.00000000   42820.67187500
2
Properties=species:S:1:pos:R:3:forces:R:3 energy=2490.08233504954 pbc="F F F"
Rh       0.00000000       0.00000000       0.00000000       0.00000000       0.00000000  -17646.24218750
Rh       0.00000000       0.00000000       0.29757576       0.00000000       0.00000000   17646.24218750
2
Properties=species:S:1:pos:R:3:forces:R:3 energy=1771.7109971652505 pbc="F F F"
Rh       0.00000000       0.00000000       0.00000000       0.00000000       0.00000000   -8237.73437500
Rh       0.00000000       0.00000000       0.35636364       0.00000000       0.00000000    8237.73437500
2
Properties=species:S:1:pos:R:3:forces:R:3 energy=1412.1798692418988 pbc="F F F"
Rh       0.00000000       0.00000000       0.00000000       0.00000000       0.00000000   -4507.29199219
Rh       0.00000000       0.00000000       0.41515152       0.00000000       0.00000000    4507.29199219
2
Properties=species:S:1:pos:R:3:forces:R:3 energy=1201.0962510968432 pbc="F F F"
Rh       0.00000000       0.00000000       0.00000000       0.00000000       0.00000000   -2915.57910156
Rh       0.00000000       0.00000000       0.47393939       0.00000000       0.00000000    2915.57910156
2
Properties=species:S:1:pos:R:3:forces:R:3 energy=1050.2655626582946 pbc="F F F"
Rh       0.00000000       0.00000000       0.00000000       0.00000000       0.00000000   -2321.53979492
Rh       0.00000000       0.00000000       0.53272727       0.00000000       0.00000000    2321.53979492
2
Properties=species:S:1:pos:R:3:forces:R:3 energy=919.9219958271198 pbc="F F F"
Rh       0.00000000       0.00000000       0.00000000       0.00000000       0.00000000   -2154.76025391
Rh       0.00000000       0.00000000       0.59151515       0.00000000       0.00000000    2154.76025391
2
Properties=species:S:1:pos:R:3:forces:R:3 energy=794.263060381615 pbc="F F F"
Rh       0.00000000       0.00000000       0.00000000       0.00000000       0.00000000   -2130.26928711
Rh       0.00000000       0.00000000       0.65030303       0.00000000       0.00000000    2130.26928711
2
Properties=species:S:1:pos:R:3:forces:R:3 energy=668.616393065873 pbc="F F F"
Rh       0.00000000       0.00000000       0.00000000       0.00000000       0.00000000   -2148.24389648
Rh       0.00000000       0.00000000       0.70909091       0.00000000       0.00000000    2148.24389648
2
Properties=species:S:1:pos:R:3:forces:R:3 energy=542.0470573817988 pbc="F F F"
Rh       0.00000000       0.00000000       0.00000000       0.00000000       0.00000000   -2144.95361328
Rh       0.00000000       0.00000000       0.76787879       0.00000000       0.00000000    2144.95361328
2
Properties=species:S:1:pos:R:3:forces:R:3 energy=420.12490809106305 pbc="F F F"
Rh       0.00000000       0.00000000       0.00000000       0.00000000       0.00000000   -1956.83398438
Rh       0.00000000       0.00000000       0.82666667       0.00000000       0.00000000    1956.83398438
2
Properties=species:S:1:pos:R:3:forces:R:3 energy=316.14831560567904 pbc="F F F"
Rh       0.00000000       0.00000000       0.00000000       0.00000000       0.00000000   -1580.87255859
Rh       0.00000000       0.00000000       0.88545455       0.00000000       0.00000000    1580.87255859
2
Properties=species:S:1:pos:R:3:forces:R:3 energy=232.83097930448096 pbc="F F F"
Rh       0.00000000       0.00000000       0.00000000       0.00000000       0.00000000   -1254.68115234
Rh       0.00000000       0.00000000       0.94424242       0.00000000       0.00000000    1254.68115234
2
Properties=species:S:1:pos:R:3:forces:R:3 energy=169.2903003865434 pbc="F F F"
Rh       0.00000000       0.00000000       0.00000000       0.00000000       0.00000000    -912.89990234
Rh       0.00000000       0.00000000       1.00303030       0.00000000       0.00000000     912.89990234
2
Properties=species:S:1:pos:R:3:forces:R:3 energy=123.90049311292871 pbc="F F F"
Rh       0.00000000       0.00000000       0.00000000       0.00000000       0.00000000    -646.61523438
Rh       0.00000000       0.00000000       1.06181818       0.00000000       0.00000000     646.61523438
2
Properties=species:S:1:pos:R:3:forces:R:3 energy=91.38534296005521 pbc="F F F"
Rh       0.00000000       0.00000000       0.00000000       0.00000000       0.00000000    -473.72683716
Rh       0.00000000       0.00000000       1.12060606       0.00000000       0.00000000     473.72683716
2
Properties=species:S:1:pos:R:3:forces:R:3 energy=67.08098590622231 pbc="F F F"
Rh       0.00000000       0.00000000       0.00000000       0.00000000       0.00000000    -358.58148193
Rh       0.00000000       0.00000000       1.17939394       0.00000000       0.00000000     358.58148193
2
Properties=species:S:1:pos:R:3:forces:R:3 energy=48.82479774435462 pbc="F F F"
Rh       0.00000000       0.00000000       0.00000000       0.00000000       0.00000000    -265.15289307
Rh       0.00000000       0.00000000       1.23818182       0.00000000       0.00000000     265.15289307
2
Properties=species:S:1:pos:R:3:forces:R:3 energy=35.516803040570096 pbc="F F F"
Rh       0.00000000       0.00000000       0.00000000       0.00000000       0.00000000    -191.62457275
Rh       0.00000000       0.00000000       1.29696970       0.00000000       0.00000000     191.62457275
2
Properties=species:S:1:pos:R:3:forces:R:3 energy=25.830824381556532 pbc="F F F"
Rh       0.00000000       0.00000000       0.00000000       0.00000000       0.00000000    -141.26232910
Rh       0.00000000       0.00000000       1.35575758       0.00000000       0.00000000     141.26232910
2
Properties=species:S:1:pos:R:3:forces:R:3 energy=18.595870091478467 pbc="F F F"
Rh       0.00000000       0.00000000       0.00000000       0.00000000       0.00000000    -106.97181702
Rh       0.00000000       0.00000000       1.41454545       0.00000000       0.00000000     106.97181702
2
Properties=species:S:1:pos:R:3:forces:R:3 energy=13.049034342902104 pbc="F F F"
Rh       0.00000000       0.00000000       0.00000000       0.00000000       0.00000000     -83.16793060
Rh       0.00000000       0.00000000       1.47333333       0.00000000       0.00000000      83.16793060
2
Properties=species:S:1:pos:R:3:forces:R:3 energy=8.682588818928702 pbc="F F F"
Rh       0.00000000       0.00000000       0.00000000       0.00000000       0.00000000     -66.25444794
Rh       0.00000000       0.00000000       1.53212121       0.00000000       0.00000000      66.25444794
2
Properties=species:S:1:pos:R:3:forces:R:3 energy=5.182647219226999 pbc="F F F"
Rh       0.00000000       0.00000000       0.00000000       0.00000000       0.00000000     -53.29268265
Rh       0.00000000       0.00000000       1.59090909       0.00000000       0.00000000      53.29268265
2
Properties=species:S:1:pos:R:3:forces:R:3 energy=2.3722467189974483 pbc="F F F"
Rh       0.00000000       0.00000000       0.00000000       0.00000000       0.00000000     -42.63626862
Rh       0.00000000       0.00000000       1.64969697       0.00000000       0.00000000      42.63626862
2
Properties=species:S:1:pos:R:3:forces:R:3 energy=0.13550807400463943 pbc="F F F"
Rh       0.00000000       0.00000000       0.00000000       0.00000000       0.00000000     -33.73029709
Rh       0.00000000       0.00000000       1.70848485       0.00000000       0.00000000      33.73029709
2
Properties=species:S:1:pos:R:3:forces:R:3 energy=-1.6232182777665538 pbc="F F F"
Rh       0.00000000       0.00000000       0.00000000       0.00000000       0.00000000     -26.33206940
Rh       0.00000000       0.00000000       1.76727273       0.00000000       0.00000000      26.33206940
2
Properties=species:S:1:pos:R:3:forces:R:3 energy=-2.9848359879821746 pbc="F F F"
Rh       0.00000000       0.00000000       0.00000000       0.00000000       0.00000000     -20.17787933
Rh       0.00000000       0.00000000       1.82606061       0.00000000       0.00000000      20.17787933
2
Properties=species:S:1:pos:R:3:forces:R:3 energy=-4.015785636757894 pbc="F F F"
Rh       0.00000000       0.00000000       0.00000000       0.00000000       0.00000000     -15.05452633
Rh       0.00000000       0.00000000       1.88484848       0.00000000       0.00000000      15.05452633
2
Properties=species:S:1:pos:R:3:forces:R:3 energy=-4.772504897046514 pbc="F F F"
Rh       0.00000000       0.00000000       0.00000000       0.00000000       0.00000000     -10.83114529
Rh       0.00000000       0.00000000       1.94363636       0.00000000       0.00000000      10.83114529
2
Properties=species:S:1:pos:R:3:forces:R:3 energy=-5.304977475391551 pbc="F F F"
Rh       0.00000000       0.00000000       0.00000000       0.00000000       0.00000000      -7.40894270
Rh       0.00000000       0.00000000       2.00242424       0.00000000       0.00000000       7.40894270
2
Properties=species:S:1:pos:R:3:forces:R:3 energy=-5.657163561344912 pbc="F F F"
Rh       0.00000000       0.00000000       0.00000000       0.00000000       0.00000000      -4.67804861
Rh       0.00000000       0.00000000       2.06121212       0.00000000       0.00000000       4.67804861
2
Properties=species:S:1:pos:R:3:forces:R:3 energy=-5.866275191393993 pbc="F F F"
Rh       0.00000000       0.00000000       0.00000000       0.00000000       0.00000000      -2.52302217
Rh       0.00000000       0.00000000       2.12000000       0.00000000       0.00000000       2.52302217
2
Properties=species:S:1:pos:R:3:forces:R:3 energy=-5.963128211165841 pbc="F F F"
Rh       0.00000000       0.00000000       0.00000000       0.00000000       0.00000000      -0.84432089
Rh       0.00000000       0.00000000       2.17878788       0.00000000       0.00000000       0.84432089
2
Properties=species:S:1:pos:R:3:forces:R:3 energy=-5.973375413373023 pbc="F F F"
Rh       0.00000000       0.00000000       0.00000000       0.00000000       0.00000000       0.43433288
Rh       0.00000000       0.00000000       2.23757576       0.00000000       0.00000000      -0.43433288
2
Properties=species:S:1:pos:R:3:forces:R:3 energy=-5.91872814565697 pbc="F F F"
Rh       0.00000000       0.00000000       0.00000000       0.00000000       0.00000000       1.37247872
Rh       0.00000000       0.00000000       2.29636364       0.00000000       0.00000000      -1.37247872
2
Properties=species:S:1:pos:R:3:forces:R:3 energy=-5.817684383333689 pbc="F F F"
Rh       0.00000000       0.00000000       0.00000000       0.00000000       0.00000000       2.02074170
Rh       0.00000000       0.00000000       2.35515152       0.00000000       0.00000000      -2.02074170
2
Properties=species:S:1:pos:R:3:forces:R:3 energy=-5.685918474881249 pbc="F F F"
Rh       0.00000000       0.00000000       0.00000000       0.00000000       0.00000000       2.42497396
Rh       0.00000000       0.00000000       2.41393939       0.00000000       0.00000000      -2.42497396
2
Properties=species:S:1:pos:R:3:forces:R:3 energy=-5.536498721567342 pbc="F F F"
Rh       0.00000000       0.00000000       0.00000000       0.00000000       0.00000000       2.62845159
Rh       0.00000000       0.00000000       2.47272727       0.00000000       0.00000000      -2.62845159
2
Properties=species:S:1:pos:R:3:forces:R:3 energy=-5.379961331303957 pbc="F F F"
Rh       0.00000000       0.00000000       0.00000000       0.00000000       0.00000000       2.67453456
Rh       0.00000000       0.00000000       2.53151515       0.00000000       0.00000000      -2.67453456
2
Properties=species:S:1:pos:R:3:forces:R:3 energy=-5.2242149646822895 pbc="F F F"
Rh       0.00000000       0.00000000       0.00000000       0.00000000       0.00000000       2.60975981
Rh       0.00000000       0.00000000       2.59030303       0.00000000       0.00000000      -2.60975981
2
Properties=species:S:1:pos:R:3:forces:R:3 energy=-5.074272717631044 pbc="F F F"
Rh       0.00000000       0.00000000       0.00000000       0.00000000       0.00000000       2.48618841
Rh       0.00000000       0.00000000       2.64909091       0.00000000       0.00000000      -2.48618841
2
Properties=species:S:1:pos:R:3:forces:R:3 energy=-4.932000307348589 pbc="F F F"
Rh       0.00000000       0.00000000       0.00000000       0.00000000       0.00000000       2.35667610
Rh       0.00000000       0.00000000       2.70787879       0.00000000       0.00000000      -2.35667610
2
Properties=species:S:1:pos:R:3:forces:R:3 energy=-4.79669439385587 pbc="F F F"
Rh       0.00000000       0.00000000       0.00000000       0.00000000       0.00000000       2.25050664
Rh       0.00000000       0.00000000       2.76666667       0.00000000       0.00000000      -2.25050664
2
Properties=species:S:1:pos:R:3:forces:R:3 energy=-4.667141579744857 pbc="F F F"
Rh       0.00000000       0.00000000       0.00000000       0.00000000       0.00000000       2.15710998
Rh       0.00000000       0.00000000       2.82545455       0.00000000       0.00000000      -2.15710998
2
Properties=species:S:1:pos:R:3:forces:R:3 energy=-4.54320257522686 pbc="F F F"
Rh       0.00000000       0.00000000       0.00000000       0.00000000       0.00000000       2.05768728
Rh       0.00000000       0.00000000       2.88424242       0.00000000       0.00000000      -2.05768728
2
Properties=species:S:1:pos:R:3:forces:R:3 energy=-4.425379399018309 pbc="F F F"
Rh       0.00000000       0.00000000       0.00000000       0.00000000       0.00000000       1.94969618
Rh       0.00000000       0.00000000       2.94303030       0.00000000       0.00000000      -1.94969618
2
Properties=species:S:1:pos:R:3:forces:R:3 energy=-4.314038100428751 pbc="F F F"
Rh       0.00000000       0.00000000       0.00000000       0.00000000       0.00000000       1.83794296
Rh       0.00000000       0.00000000       3.00181818       0.00000000       0.00000000      -1.83794296
2
Properties=species:S:1:pos:R:3:forces:R:3 energy=-4.209279421730671 pbc="F F F"
Rh       0.00000000       0.00000000       0.00000000       0.00000000       0.00000000       1.72622490
Rh       0.00000000       0.00000000       3.06060606       0.00000000       0.00000000      -1.72622490
2
Properties=species:S:1:pos:R:3:forces:R:3 energy=-4.111030997346555 pbc="F F F"
Rh       0.00000000       0.00000000       0.00000000       0.00000000       0.00000000       1.61680102
Rh       0.00000000       0.00000000       3.11939394       0.00000000       0.00000000      -1.61680102
2
Properties=species:S:1:pos:R:3:forces:R:3 energy=-4.019108673934085 pbc="F F F"
Rh       0.00000000       0.00000000       0.00000000       0.00000000       0.00000000       1.51117337
Rh       0.00000000       0.00000000       3.17818182       0.00000000       0.00000000      -1.51117337
2
Properties=species:S:1:pos:R:3:forces:R:3 energy=-3.9332606895058775 pbc="F F F"
Rh       0.00000000       0.00000000       0.00000000       0.00000000       0.00000000       1.41025519
Rh       0.00000000       0.00000000       3.23696970       0.00000000       0.00000000      -1.41025519
2
Properties=species:S:1:pos:R:3:forces:R:3 energy=-3.8531977356112974 pbc="F F F"
Rh       0.00000000       0.00000000       0.00000000       0.00000000       0.00000000       1.31438351
Rh       0.00000000       0.00000000       3.29575758       0.00000000       0.00000000      -1.31438351
2
Properties=species:S:1:pos:R:3:forces:R:3 energy=-3.778623797393041 pbc="F F F"
Rh       0.00000000       0.00000000       0.00000000       0.00000000       0.00000000       1.22348642
Rh       0.00000000       0.00000000       3.35454545       0.00000000       0.00000000      -1.22348642
2
Properties=species:S:1:pos:R:3:forces:R:3 energy=-3.709251398713142 pbc="F F F"
Rh       0.00000000       0.00000000       0.00000000       0.00000000       0.00000000       1.13738239
Rh       0.00000000       0.00000000       3.41333333       0.00000000       0.00000000      -1.13738239
2
Properties=species:S:1:pos:R:3:forces:R:3 energy=-3.6448024337862104 pbc="F F F"
Rh       0.00000000       0.00000000       0.00000000       0.00000000       0.00000000       1.05598104
Rh       0.00000000       0.00000000       3.47212121       0.00000000       0.00000000      -1.05598104
2
Properties=species:S:1:pos:R:3:forces:R:3 energy=-3.5850012807191205 pbc="F F F"
Rh       0.00000000       0.00000000       0.00000000       0.00000000       0.00000000       0.97932339
Rh       0.00000000       0.00000000       3.53090909       0.00000000       0.00000000      -0.97932339
2
Properties=species:S:1:pos:R:3:forces:R:3 energy=-3.5295636211803694 pbc="F F F"
Rh       0.00000000       0.00000000       0.00000000       0.00000000       0.00000000       0.90749323
Rh       0.00000000       0.00000000       3.58969697       0.00000000       0.00000000      -0.90749323
2
Properties=species:S:1:pos:R:3:forces:R:3 energy=-3.4782064436450146 pbc="F F F"
Rh       0.00000000       0.00000000       0.00000000       0.00000000       0.00000000       0.84051007
Rh       0.00000000       0.00000000       3.64848485       0.00000000       0.00000000      -0.84051007
2
Properties=species:S:1:pos:R:3:forces:R:3 energy=-3.4306476045713827 pbc="F F F"
Rh       0.00000000       0.00000000       0.00000000       0.00000000       0.00000000       0.77825665
Rh       0.00000000       0.00000000       3.70727273       0.00000000       0.00000000      -0.77825665
2
Properties=species:S:1:pos:R:3:forces:R:3 energy=-3.3866141857226264 pbc="F F F"
Rh       0.00000000       0.00000000       0.00000000       0.00000000       0.00000000       0.72047806
Rh       0.00000000       0.00000000       3.76606061       0.00000000       0.00000000      -0.72047806
2
Properties=species:S:1:pos:R:3:forces:R:3 energy=-3.3458553014138115 pbc="F F F"
Rh       0.00000000       0.00000000       0.00000000       0.00000000       0.00000000       0.66683704
Rh       0.00000000       0.00000000       3.82484848       0.00000000       0.00000000      -0.66683704
2
Properties=species:S:1:pos:R:3:forces:R:3 energy=-3.30813684063189 pbc="F F F"
Rh       0.00000000       0.00000000       0.00000000       0.00000000       0.00000000       0.61694789
Rh       0.00000000       0.00000000       3.88363636       0.00000000       0.00000000      -0.61694789
2
Properties=species:S:1:pos:R:3:forces:R:3 energy=-3.2732512421974413 pbc="F F F"
Rh       0.00000000       0.00000000       0.00000000       0.00000000       0.00000000       0.57042646
Rh       0.00000000       0.00000000       3.94242424       0.00000000       0.00000000      -0.57042646
2
Properties=species:S:1:pos:R:3:forces:R:3 energy=-3.241010561618947 pbc="F F F"
Rh       0.00000000       0.00000000       0.00000000       0.00000000       0.00000000       0.52689958
Rh       0.00000000       0.00000000       4.00121212       0.00000000       0.00000000      -0.52689958
2
Properties=species:S:1:pos:R:3:forces:R:3 energy=-3.2112490810258723 pbc="F F F"
Rh       0.00000000       0.00000000       0.00000000       0.00000000       0.00000000       0.48601699
Rh       0.00000000       0.00000000       4.06000000       0.00000000       0.00000000      -0.48601699
2
Properties=species:S:1:pos:R:3:forces:R:3 energy=-3.183821256100212 pbc="F F F"
Rh       0.00000000       0.00000000       0.00000000       0.00000000       0.00000000       0.44746408
Rh       0.00000000       0.00000000       4.11878788       0.00000000       0.00000000      -0.44746408
2
Properties=species:S:1:pos:R:3:forces:R:3 energy=-3.1585976249467844 pbc="F F F"
Rh       0.00000000       0.00000000       0.00000000       0.00000000       0.00000000       0.41096881
Rh       0.00000000       0.00000000       4.17757576       0.00000000       0.00000000      -0.41096881
2
Properties=species:S:1:pos:R:3:forces:R:3 energy=-3.13546436693403 pbc="F F F"
Rh       0.00000000       0.00000000       0.00000000       0.00000000       0.00000000       0.37632549
Rh       0.00000000       0.00000000       4.23636364       0.00000000       0.00000000      -0.37632549
2
Properties=species:S:1:pos:R:3:forces:R:3 energy=-3.11431695809114 pbc="F F F"
Rh       0.00000000       0.00000000       0.00000000       0.00000000       0.00000000       0.34339288
Rh       0.00000000       0.00000000       4.29515152       0.00000000       0.00000000      -0.34339288
2
Properties=species:S:1:pos:R:3:forces:R:3 energy=-3.09505766654502 pbc="F F F"
Rh       0.00000000       0.00000000       0.00000000       0.00000000       0.00000000       0.31211147
Rh       0.00000000       0.00000000       4.35393939       0.00000000       0.00000000      -0.31211147
2
Properties=species:S:1:pos:R:3:forces:R:3 energy=-3.0775885536822196 pbc="F F F"
Rh       0.00000000       0.00000000       0.00000000       0.00000000       0.00000000       0.28247392
Rh       0.00000000       0.00000000       4.41272727       0.00000000       0.00000000      -0.28247392
2
Properties=species:S:1:pos:R:3:forces:R:3 energy=-3.0618121577264463 pbc="F F F"
Rh       0.00000000       0.00000000       0.00000000       0.00000000       0.00000000       0.25453651
Rh       0.00000000       0.00000000       4.47151515       0.00000000       0.00000000      -0.25453651
2
Properties=species:S:1:pos:R:3:forces:R:3 energy=-3.0476261511592564 pbc="F F F"
Rh       0.00000000       0.00000000       0.00000000       0.00000000       0.00000000       0.22837761
Rh       0.00000000       0.00000000       4.53030303       0.00000000       0.00000000      -0.22837761
2
Properties=species:S:1:pos:R:3:forces:R:3 energy=-3.0349240242975717 pbc="F F F"
Rh       0.00000000       0.00000000       0.00000000       0.00000000       0.00000000       0.20407945
Rh       0.00000000       0.00000000       4.58909091       0.00000000       0.00000000      -0.20407945
2
Properties=species:S:1:pos:R:3:forces:R:3 energy=-3.023593919375279 pbc="F F F"
Rh       0.00000000       0.00000000       0.00000000       0.00000000       0.00000000       0.18170395
Rh       0.00000000       0.00000000       4.64787879       0.00000000       0.00000000      -0.18170395
2
Properties=species:S:1:pos:R:3:forces:R:3 energy=-3.0135217973409416 pbc="F F F"
Rh       0.00000000       0.00000000       0.00000000       0.00000000       0.00000000       0.16126449
Rh       0.00000000       0.00000000       4.70666667       0.00000000       0.00000000      -0.16126449
2
Properties=species:S:1:pos:R:3:forces:R:3 energy=-3.0045962062293805 pbc="F F F"
Rh       0.00000000       0.00000000       0.00000000       0.00000000       0.00000000       0.14271463
Rh       0.00000000       0.00000000       4.76545455       0.00000000       0.00000000      -0.14271463
2
Properties=species:S:1:pos:R:3:forces:R:3 energy=-2.996706978195005 pbc="F F F"
Rh       0.00000000       0.00000000       0.00000000       0.00000000       0.00000000       0.12594414
Rh       0.00000000       0.00000000       4.82424242       0.00000000       0.00000000      -0.12594414
2
Properties=species:S:1:pos:R:3:forces:R:3 energy=-2.9897564320172076 pbc="F F F"
Rh       0.00000000       0.00000000       0.00000000       0.00000000       0.00000000       0.11080202
Rh       0.00000000       0.00000000       4.88303030       0.00000000       0.00000000      -0.11080202
2
Properties=species:S:1:pos:R:3:forces:R:3 energy=-2.98365117183401 pbc="F F F"
Rh       0.00000000       0.00000000       0.00000000       0.00000000       0.00000000       0.09712007
Rh       0.00000000       0.00000000       4.94181818       0.00000000       0.00000000      -0.09712007
2
Properties=species:S:1:pos:R:3:forces:R:3 energy=-2.9783107525742873 pbc="F F F"
Rh       0.00000000       0.00000000       0.00000000       0.00000000       0.00000000       0.08478288
Rh       0.00000000       0.00000000       5.00060606       0.00000000       0.00000000      -0.08478288
2
Properties=species:S:1:pos:R:3:forces:R:3 energy=-2.973657042988549 pbc="F F F"
Rh       0.00000000       0.00000000       0.00000000       0.00000000       0.00000000       0.07375033
Rh       0.00000000       0.00000000       5.05939394       0.00000000       0.00000000      -0.07375033
2
Properties=species:S:1:pos:R:3:forces:R:3 energy=-2.9696131769399607 pbc="F F F"
Rh       0.00000000       0.00000000       0.00000000       0.00000000       0.00000000       0.06406730
Rh       0.00000000       0.00000000       5.11818182       0.00000000       0.00000000      -0.06406730
2
Properties=species:S:1:pos:R:3:forces:R:3 energy=-2.9660967976566557 pbc="F F F"
Rh       0.00000000       0.00000000       0.00000000       0.00000000       0.00000000       0.05579469
Rh       0.00000000       0.00000000       5.17696970       0.00000000       0.00000000      -0.05579469
2
Properties=species:S:1:pos:R:3:forces:R:3 energy=-2.9630249306414487 pbc="F F F"
Rh       0.00000000       0.00000000       0.00000000       0.00000000       0.00000000       0.04895173
Rh       0.00000000       0.00000000       5.23575758       0.00000000       0.00000000      -0.04895173
2
Properties=species:S:1:pos:R:3:forces:R:3 energy=-2.9603139266510365 pbc="F F F"
Rh       0.00000000       0.00000000       0.00000000       0.00000000       0.00000000       0.04350800
Rh       0.00000000       0.00000000       5.29454545       0.00000000       0.00000000      -0.04350800
2
Properties=species:S:1:pos:R:3:forces:R:3 energy=-2.957883984481439 pbc="F F F"
Rh       0.00000000       0.00000000       0.00000000       0.00000000       0.00000000       0.03934554
Rh       0.00000000       0.00000000       5.35333333       0.00000000       0.00000000      -0.03934554
2
Properties=species:S:1:pos:R:3:forces:R:3 energy=-2.955678443865974 pbc="F F F"
Rh       0.00000000       0.00000000       0.00000000       0.00000000       0.00000000       0.03559995
Rh       0.00000000       0.00000000       5.41212121       0.00000000       0.00000000      -0.03559995
2
Properties=species:S:1:pos:R:3:forces:R:3 energy=-2.95373633441539 pbc="F F F"
Rh       0.00000000       0.00000000       0.00000000       0.00000000       0.00000000       0.02996908
Rh       0.00000000       0.00000000       5.47090909       0.00000000       0.00000000      -0.02996908
2
Properties=species:S:1:pos:R:3:forces:R:3 energy=-2.9522025000719667 pbc="F F F"
Rh       0.00000000       0.00000000       0.00000000       0.00000000       0.00000000       0.02212902
Rh       0.00000000       0.00000000       5.52969697       0.00000000       0.00000000      -0.02212902
2
Properties=species:S:1:pos:R:3:forces:R:3 energy=-2.951097585369298 pbc="F F F"
Rh       0.00000000       0.00000000       0.00000000       0.00000000       0.00000000       0.01598309
Rh       0.00000000       0.00000000       5.58848485       0.00000000       0.00000000      -0.01598309
2
Properties=species:S:1:pos:R:3:forces:R:3 energy=-2.95028158273227 pbc="F F F"
Rh       0.00000000       0.00000000       0.00000000       0.00000000       0.00000000       0.01180221
Rh       0.00000000       0.00000000       5.64727273       0.00000000       0.00000000      -0.01180221
2
Properties=species:S:1:pos:R:3:forces:R:3 energy=-2.9497521448046715 pbc="F F F"
Rh       0.00000000       0.00000000       0.00000000       0.00000000       0.00000000       0.00554015
Rh       0.00000000       0.00000000       5.70606061       0.00000000       0.00000000      -0.00554015
2
Properties=species:S:1:pos:R:3:forces:R:3 energy=-2.949704754630147 pbc="F F F"
Rh       0.00000000       0.00000000       0.00000000       0.00000000       0.00000000      -0.00398932
Rh       0.00000000       0.00000000       5.76484848       0.00000000       0.00000000       0.00398932
2
Properties=species:S:1:pos:R:3:forces:R:3 energy=-2.9501173989034895 pbc="F F F"
Rh       0.00000000       0.00000000       0.00000000       0.00000000       0.00000000      -0.00827024
Rh       0.00000000       0.00000000       5.82363636       0.00000000       0.00000000       0.00827024
2
Properties=species:S:1:pos:R:3:forces:R:3 energy=-2.9504423228421746 pbc="F F F"
Rh       0.00000000       0.00000000       0.00000000       0.00000000       0.00000000      -0.00146985
Rh       0.00000000       0.00000000       5.88242424       0.00000000       0.00000000       0.00146985
2
Properties=species:S:1:pos:R:3:forces:R:3 energy=-2.9502290733704393 pbc="F F F"
Rh       0.00000000       0.00000000       0.00000000       0.00000000       0.00000000       0.00841076
Rh       0.00000000       0.00000000       5.94121212       0.00000000       0.00000000      -0.00841076
2
Properties=species:S:1:pos:R:3:forces:R:3 energy=-2.949580825944038 pbc="F F F"
Rh       0.00000000       0.00000000       0.00000000       0.00000000       0.00000000       0.01216704
Rh       0.00000000       0.00000000       6.00000000       0.00000000       0.00000000      -0.01216704
