2
Properties=species:S:1:pos:R:3:forces:R:3 energy=7367.125646530641 pbc="F F F"
Ru       0.00000000       0.00000000       0.00000000       0.00000000       0.00000000 -118787.78125000
Ru       0.00000000       0.00000000       0.18000000       0.00000000       0.00000000  118787.78125000
2
Properties=species:S:1:pos:R:3:forces:R:3 energy=3136.23941606189 pbc="F F F"
Ru       0.00000000       0.00000000       0.00000000       0.00000000       0.00000000  -41023.53515625
Ru       0.00000000       0.00000000       0.23878788       0.00000000       0.00000000   41023.53515625
2
Properties=species:S:1:pos:R:3:forces:R:3 energy=1575.008947315058 pbc="F F F"
Ru       0.00000000       0.00000000       0.00000000       0.00000000       0.00000000  -16213.07128906
Ru       0.00000000       0.00000000       0.29757576       0.00000000       0.00000000   16213.07128906
2
Properties=species:S:1:pos:R:3:forces:R:3 energy=948.777318900257 pbc="F F F"
Ru       0.00000000       0.00000000       0.00000000       0.00000000       0.00000000   -6452.55517578
Ru       0.00000000       0.00000000       0.35636364       0.00000000       0.00000000    6452.55517578
2
Properties=species:S:1:pos:R:3:forces:R:3 energy=713.0809688121043 pbc="F F F"
Ru       0.00000000       0.00000000       0.00000000       0.00000000       0.00000000   -2425.94897461
Ru       0.00000000       0.00000000       0.41515152       0.00000000       0.00000000    2425.94897461
2
Properties=species:S:1:pos:R:3:forces:R:3 energy=880.0752925584121 pbc="F F F"
Ru       0.00000000       0.00000000       0.00000000       0.00000000       0.00000000    4070.88940430
Ru       0.00000000       0.00000000       0.47393939       0.00000000       0.00000000   -4070.88940430
2
Properties=species:S:1:pos:R:3:forces:R:3 energy=1103.0876827236414 pbc="F F F"
Ru       0.00000000       0.00000000       0.00000000       0.00000000       0.00000000    3044.56201172
Ru       0.00000000       0.00000000       0.53272727       0.00000000       0.00000000   -3044.56201172
2
Properties=species:S:1:pos:R:3:forces:R:3 energy=1230.2533321947246 pbc="F F F"
Ru       0.00000000       0.00000000       0.00000000       0.00000000       0.00000000    -449.87744141
Ru       0.00000000       0.00000000       0.59151515       0.00000000       0.00000000     449.87744141
2
Properties=species:S:1:pos:R:3:forces:R:3 energy=1149.7859250505255 pbc="F F F"
Ru       0.00000000       0.00000000       0.00000000       0.00000000       0.00000000   -2949.16088867
Ru       0.00000000       0.00000000       0.65030303       0.00000000       0.00000000    2949.16088867
2
Properties=species:S:1:pos:R:3:forces:R:3 energy=900.9220335883472 pbc="F F F"
Ru       0.00000000       0.00000000       0.00000000       0.00000000       0.00000000   -4204.86621094
Ru       0.00000000       0.00000000       0.70909091       0.00000000       0.00000000    4204.86621094
2
Properties=species:S:1:pos:R:3:forces:R:3 energy=670.5959229575797 pbc="F F F"
Ru       0.00000000       0.00000000       0.00000000       0.00000000       0.00000000   -3601.47192383
Ru       0.00000000       0.00000000       0.76787879       0.00000000       0.00000000    3601.47192383
2
Properties=species:S:1:pos:R:3:forces:R:3 energy=482.24921305661246 pbc="F F F"
Ru       0.00000000       0.00000000       0.00000000       0.00000000       0.00000000   -2828.09008789
Ru       0.00000000       0.00000000       0.82666667       0.00000000       0.00000000    2828.09008789
2
Properties=species:S:1:pos:R:3:forces:R:3 energy=340.6391671133888 pbc="F F F"
Ru       0.00000000       0.00000000       0.00000000       0.00000000       0.00000000   -2032.36071777
Ru       0.00000000       0.00000000       0.88545455       0.00000000       0.00000000    2032.36071777
2
Properties=species:S:1:pos:R:3:forces:R:3 energy=243.1208266698288 pbc="F F F"
Ru       0.00000000       0.00000000       0.00000000       0.00000000       0.00000000   -1272.13281250
Ru       0.00000000       0.00000000       0.94424242       0.00000000       0.00000000    1272.13281250
2
Properties=species:S:1:pos:R:3:forces:R:3 energy=179.47660145092203 pbc="F F F"
Ru       0.00000000       0.00000000       0.00000000       0.00000000       0.00000000    -926.92895508
Ru       0.00000000       0.00000000       1.00303030       0.00000000       0.00000000     926.92895508
2
Properties=species:S:1:pos:R:3:forces:R:3 energy=132.60062603517366 pbc="F F F"
Ru       0.00000000       0.00000000       0.00000000       0.00000000       0.00000000    -681.49743652
Ru       0.00000000       0.00000000       1.06181818       0.00000000       0.00000000     681.49743652
2
Properties=species:S:1:pos:R:3:forces:R:3 energy=97.77466168071628 pbc="F F F"
Ru       0.00000000       0.00000000       0.00000000       0.00000000       0.00000000    -515.83251953
Ru       0.00000000       0.00000000       1.12060606       0.00000000       0.00000000     515.83251953
2
Properties=species:S:1:pos:R:3:forces:R:3 energy=70.70150541861972 pbc="F F F"
Ru       0.00000000       0.00000000       0.00000000       0.00000000       0.00000000    -411.00506592
Ru       0.00000000       0.00000000       1.17939394       0.00000000       0.00000000     411.00506592
2
Properties=species:S:1:pos:R:3:forces:R:3 energy=49.387421092667914 pbc="F F F"
Ru       0.00000000       0.00000000       0.00000000       0.00000000       0.00000000    -313.47042847
Ru       0.00000000       0.00000000       1.23818182       0.00000000       0.00000000     313.47042847
2
Properties=species:S:1:pos:R:3:forces:R:3 energy=33.60364907345222 pbc="F F F"
Ru       0.00000000       0.00000000       0.00000000       0.00000000       0.00000000    -227.65176392
Ru       0.00000000       0.00000000       1.29696970       0.00000000       0.00000000     227.65176392
2
Properties=species:S:1:pos:R:3:forces:R:3 energy=22.126476588717686 pbc="F F F"
Ru       0.00000000       0.00000000       0.00000000       0.00000000       0.00000000    -166.39237976
Ru       0.00000000       0.00000000       1.35575758       0.00000000       0.00000000     166.39237976
2
Properties=species:S:1:pos:R:3:forces:R:3 energy=13.700500313024717 pbc="F F F"
Ru       0.00000000       0.00000000       0.00000000       0.00000000       0.00000000    -122.62533569
Ru       0.00000000       0.00000000       1.41454545       0.00000000       0.00000000     122.62533569
2
Properties=species:S:1:pos:R:3:forces:R:3 energy=7.473172326707922 pbc="F F F"
Ru       0.00000000       0.00000000       0.00000000       0.00000000       0.00000000     -90.90951538
Ru       0.00000000       0.00000000       1.47333333       0.00000000       0.00000000      90.90951538
2
Properties=species:S:1:pos:R:3:forces:R:3 energy=2.848670523560945 pbc="F F F"
Ru       0.00000000       0.00000000       0.00000000       0.00000000       0.00000000     -67.55792999
Ru       0.00000000       0.00000000       1.53212121       0.00000000       0.00000000      67.55792999
2
Properties=species:S:1:pos:R:3:forces:R:3 energy=-0.5822588885767233 pbc="F F F"
Ru       0.00000000       0.00000000       0.00000000       0.00000000       0.00000000     -49.96587372
Ru       0.00000000       0.00000000       1.59090909       0.00000000       0.00000000      49.96587372
2
Properties=species:S:1:pos:R:3:forces:R:3 energy=-3.1061327615149565 pbc="F F F"
Ru       0.00000000       0.00000000       0.00000000       0.00000000       0.00000000     -36.47896194
Ru       0.00000000       0.00000000       1.64969697       0.00000000       0.00000000      36.47896194
2
Properties=species:S:1:pos:R:3:forces:R:3 energy=-4.931320096893901 pbc="F F F"
Ru       0.00000000       0.00000000       0.00000000       0.00000000       0.00000000     -26.06711388
Ru       0.00000000       0.00000000       1.70848485       0.00000000       0.00000000      26.06711388
2
Properties=species:S:1:pos:R:3:forces:R:3 energy=-6.218500010160733 pbc="F F F"
Ru       0.00000000       0.00000000       0.00000000       0.00000000       0.00000000     -18.08421135
Ru       0.00000000       0.00000000       1.76727273       0.00000000       0.00000000      18.08421135
2
Properties=species:S:1:pos:R:3:forces:R:3 energy=-7.095442830169949 pbc="F F F"
Ru       0.00000000       0.00000000       0.00000000       0.00000000       0.00000000     -12.03609657
Ru       0.00000000       0.00000000       1.82606061       0.00000000       0.00000000      12.03609657
2
Properties=species:S:1:pos:R:3:forces:R:3 energy=-7.663641707961332 pbc="F F F"
Ru       0.00000000       0.00000000       0.00000000       0.00000000       0.00000000      -7.52130699
Ru       0.00000000       0.00000000       1.88484848       0.00000000       0.00000000       7.52130699
2
Properties=species:S:1:pos:R:3:forces:R:3 energy=-8.003634840204969 pbc="F F F"
Ru       0.00000000       0.00000000       0.00000000       0.00000000       0.00000000      -4.22684145
Ru       0.00000000       0.00000000       1.94363636       0.00000000       0.00000000       4.22684145
2
Properties=species:S:1:pos:R:3:forces:R:3 energy=-8.179695656832425 pbc="F F F"
Ru       0.00000000       0.00000000       0.00000000       0.00000000       0.00000000      -1.90704429
Ru       0.00000000       0.00000000       2.00242424       0.00000000       0.00000000       1.90704429
2
Properties=species:S:1:pos:R:3:forces:R:3 energy=-8.242743813525244 pbc="F F F"
Ru       0.00000000       0.00000000       0.00000000       0.00000000       0.00000000      -0.34720796
Ru       0.00000000       0.00000000       2.06121212       0.00000000       0.00000000       0.34720796
2
Properties=species:S:1:pos:R:3:forces:R:3 energy=-8.231382439087074 pbc="F F F"
Ru       0.00000000       0.00000000       0.00000000       0.00000000       0.00000000       0.65757143
Ru       0.00000000       0.00000000       2.12000000       0.00000000       0.00000000      -0.65757143
2
Properties=species:S:1:pos:R:3:forces:R:3 energy=-8.17268870895751 pbc="F F F"
Ru       0.00000000       0.00000000       0.00000000       0.00000000       0.00000000       1.29031265
Ru       0.00000000       0.00000000       2.17878788       0.00000000       0.00000000      -1.29031265
2
Properties=species:S:1:pos:R:3:forces:R:3 energy=-8.084233574879239 pbc="F F F"
Ru       0.00000000       0.00000000       0.00000000       0.00000000       0.00000000       1.68847489
Ru       0.00000000       0.00000000       2.23757576       0.00000000       0.00000000      -1.68847489
2
Properties=species:S:1:pos:R:3:forces:R:3 energy=-7.977039962121793 pbc="F F F"
Ru       0.00000000       0.00000000       0.00000000       0.00000000       0.00000000       1.93872726
Ru       0.00000000       0.00000000       2.29636364       0.00000000       0.00000000      -1.93872726
2
Properties=species:S:1:pos:R:3:forces:R:3 energy=-7.858160442333916 pbc="F F F"
Ru       0.00000000       0.00000000       0.00000000       0.00000000       0.00000000       2.09296989
Ru       0.00000000       0.00000000       2.35515152       0.00000000       0.00000000      -2.09296989
2
Properties=species:S:1:pos:R:3:forces:R:3 energy=-7.732141879130221 pbc="F F F"
Ru       0.00000000       0.00000000       0.00000000       0.00000000       0.00000000       2.18651175
Ru       0.00000000       0.00000000       2.41393939       0.00000000       0.00000000      -2.18651175
2
Properties=species:S:1:pos:R:3:forces:R:3 energy=-7.601750466768038 pbc="F F F"
Ru       0.00000000       0.00000000       0.00000000       0.00000000       0.00000000       2.24537802
Ru       0.00000000       0.00000000       2.47272727       0.00000000       0.00000000      -2.24537802
2
Properties=species:S:1:pos:R:3:forces:R:3 energy=-7.468499776393268 pbc="F F F"
Ru       0.00000000       0.00000000       0.00000000       0.00000000       0.00000000       2.28555799
Ru       0.00000000       0.00000000       2.53151515       0.00000000       0.00000000      -2.28555799
2
Properties=species:S:1:pos:R:3:forces:R:3 energy=-7.333264803841113 pbc="F F F"
Ru       0.00000000       0.00000000       0.00000000       0.00000000       0.00000000       2.31335378
Ru       0.00000000       0.00000000       2.59030303       0.00000000       0.00000000      -2.31335378
2
Properties=species:S:1:pos:R:3:forces:R:3 energy=-7.196691569856704 pbc="F F F"
Ru       0.00000000       0.00000000       0.00000000       0.00000000       0.00000000       2.33181810
Ru       0.00000000       0.00000000       2.64909091       0.00000000       0.00000000      -2.33181810
2
Properties=species:S:1:pos:R:3:forces:R:3 energy=-7.059131494555814 pbc="F F F"
Ru       0.00000000       0.00000000       0.00000000       0.00000000       0.00000000       2.34864044
Ru       0.00000000       0.00000000       2.70787879       0.00000000       0.00000000      -2.34864044
2
Properties=species:S:1:pos:R:3:forces:R:3 energy=-6.920441468932698 pbc="F F F"
Ru       0.00000000       0.00000000       0.00000000       0.00000000       0.00000000       2.37016988
Ru       0.00000000       0.00000000       2.76666667       0.00000000       0.00000000      -2.37016988
2
Properties=species:S:1:pos:R:3:forces:R:3 energy=-6.780574466251287 pbc="F F F"
Ru       0.00000000       0.00000000       0.00000000       0.00000000       0.00000000       2.38551164
Ru       0.00000000       0.00000000       2.82545455       0.00000000       0.00000000      -2.38551164
2
Properties=species:S:1:pos:R:3:forces:R:3 energy=-6.640430135699301 pbc="F F F"
Ru       0.00000000       0.00000000       0.00000000       0.00000000       0.00000000       2.37755942
Ru       0.00000000       0.00000000       2.88424242       0.00000000       0.00000000      -2.37755942
2
Properties=species:S:1:pos:R:3:forces:R:3 energy=-6.501590878642844 pbc="F F F"
Ru       0.00000000       0.00000000       0.00000000       0.00000000       0.00000000       2.34131527
Ru       0.00000000       0.00000000       2.94303030       0.00000000       0.00000000      -2.34131527
2
Properties=species:S:1:pos:R:3:forces:R:3 energy=-6.365649180156831 pbc="F F F"
Ru       0.00000000       0.00000000       0.00000000       0.00000000       0.00000000       2.27953959
Ru       0.00000000       0.00000000       3.00181818       0.00000000       0.00000000      -2.27953959
2
Properties=species:S:1:pos:R:3:forces:R:3 energy=-6.233997555867526 pbc="F F F"
Ru       0.00000000       0.00000000       0.00000000       0.00000000       0.00000000       2.19604659
Ru       0.00000000       0.00000000       3.06060606       0.00000000       0.00000000      -2.19604659
2
Properties=species:S:1:pos:R:3:forces:R:3 energy=-6.107792719167862 pbc="F F F"
Ru       0.00000000       0.00000000       0.00000000       0.00000000       0.00000000       2.09493756
Ru       0.00000000       0.00000000       3.11939394       0.00000000       0.00000000      -2.09493756
2
Properties=species:S:1:pos:R:3:forces:R:3 energy=-5.987935726026931 pbc="F F F"
Ru       0.00000000       0.00000000       0.00000000       0.00000000       0.00000000       1.98090541
Ru       0.00000000       0.00000000       3.17818182       0.00000000       0.00000000      -1.98090541
2
Properties=species:S:1:pos:R:3:forces:R:3 energy=-5.875045995273319 pbc="F F F"
Ru       0.00000000       0.00000000       0.00000000       0.00000000       0.00000000       1.85872829
Ru       0.00000000       0.00000000       3.23696970       0.00000000       0.00000000      -1.85872829
2
Properties=species:S:1:pos:R:3:forces:R:3 energy=-5.769472142546855 pbc="F F F"
Ru       0.00000000       0.00000000       0.00000000       0.00000000       0.00000000       1.73259175
Ru       0.00000000       0.00000000       3.29575758       0.00000000       0.00000000      -1.73259175
2
Properties=species:S:1:pos:R:3:forces:R:3 energy=-5.671347066350202 pbc="F F F"
Ru       0.00000000       0.00000000       0.00000000       0.00000000       0.00000000       1.60581005
Ru       0.00000000       0.00000000       3.35454545       0.00000000       0.00000000      -1.60581005
2
Properties=species:S:1:pos:R:3:forces:R:3 energy=-5.580629492910394 pbc="F F F"
Ru       0.00000000       0.00000000       0.00000000       0.00000000       0.00000000       1.48097873
Ru       0.00000000       0.00000000       3.41333333       0.00000000       0.00000000      -1.48097873
2
Properties=species:S:1:pos:R:3:forces:R:3 energy=-5.4971391020736 pbc="F F F"
Ru       0.00000000       0.00000000       0.00000000       0.00000000       0.00000000       1.36024666
Ru       0.00000000       0.00000000       3.47212121       0.00000000       0.00000000      -1.36024666
2
Properties=species:S:1:pos:R:3:forces:R:3 energy=-5.420581907380456 pbc="F F F"
Ru       0.00000000       0.00000000       0.00000000       0.00000000       0.00000000       1.24541521
Ru       0.00000000       0.00000000       3.53090909       0.00000000       0.00000000      -1.24541521
2
Properties=species:S:1:pos:R:3:forces:R:3 energy=-5.350565698588823 pbc="F F F"
Ru       0.00000000       0.00000000       0.00000000       0.00000000       0.00000000       1.13783216
Ru       0.00000000       0.00000000       3.58969697       0.00000000       0.00000000      -1.13783216
2
Properties=species:S:1:pos:R:3:forces:R:3 energy=-5.286643408512592 pbc="F F F"
Ru       0.00000000       0.00000000       0.00000000       0.00000000       0.00000000       1.03823900
Ru       0.00000000       0.00000000       3.64848485       0.00000000       0.00000000      -1.03823900
2
Properties=species:S:1:pos:R:3:forces:R:3 energy=-5.228337170291514 pbc="F F F"
Ru       0.00000000       0.00000000       0.00000000       0.00000000       0.00000000       0.94670039
Ru       0.00000000       0.00000000       3.70727273       0.00000000       0.00000000      -0.94670039
2
Properties=species:S:1:pos:R:3:forces:R:3 energy=-5.175184946062387 pbc="F F F"
Ru       0.00000000       0.00000000       0.00000000       0.00000000       0.00000000       0.86272377
Ru       0.00000000       0.00000000       3.76606061       0.00000000       0.00000000      -0.86272377
2
Properties=species:S:1:pos:R:3:forces:R:3 energy=-5.126769816766326 pbc="F F F"
Ru       0.00000000       0.00000000       0.00000000       0.00000000       0.00000000       0.78546411
Ru       0.00000000       0.00000000       3.82484848       0.00000000       0.00000000      -0.78546411
2
Properties=species:S:1:pos:R:3:forces:R:3 energy=-5.082721368310727 pbc="F F F"
Ru       0.00000000       0.00000000       0.00000000       0.00000000       0.00000000       0.71394354
Ru       0.00000000       0.00000000       3.88363636       0.00000000       0.00000000      -0.71394354
2
Properties=species:S:1:pos:R:3:forces:R:3 energy=-5.04273196738909 pbc="F F F"
Ru       0.00000000       0.00000000       0.00000000       0.00000000       0.00000000       0.64725673
Ru       0.00000000       0.00000000       3.94242424       0.00000000       0.00000000      -0.64725673
2
Properties=species:S:1:pos:R:3:forces:R:3 energy=-5.0065400278309715 pbc="F F F"
Ru       0.00000000       0.00000000       0.00000000       0.00000000       0.00000000       0.58465999
Ru       0.00000000       0.00000000       4.00121212       0.00000000       0.00000000      -0.58465999
2
Properties=species:S:1:pos:R:3:forces:R:3 energy=-4.97392102672371 pbc="F F F"
Ru       0.00000000       0.00000000       0.00000000       0.00000000       0.00000000       0.52562308
Ru       0.00000000       0.00000000       4.06000000       0.00000000       0.00000000      -0.52562308
2
Properties=species:S:1:pos:R:3:forces:R:3 energy=-4.944676381934501 pbc="F F F"
Ru       0.00000000       0.00000000       0.00000000       0.00000000       0.00000000       0.46983615
Ru       0.00000000       0.00000000       4.11878788       0.00000000       0.00000000      -0.46983615
2
Properties=species:S:1:pos:R:3:forces:R:3 energy=-4.918618749354048 pbc="F F F"
Ru       0.00000000       0.00000000       0.00000000       0.00000000       0.00000000       0.41716582
Ru       0.00000000       0.00000000       4.17757576       0.00000000       0.00000000      -0.41716582
2
Properties=species:S:1:pos:R:3:forces:R:3 energy=-4.895565589594666 pbc="F F F"
Ru       0.00000000       0.00000000       0.00000000       0.00000000       0.00000000       0.36762732
Ru       0.00000000       0.00000000       4.23636364       0.00000000       0.00000000      -0.36762732
2
Properties=species:S:1:pos:R:3:forces:R:3 energy=-4.875330565914502 pbc="F F F"
Ru       0.00000000       0.00000000       0.00000000       0.00000000       0.00000000       0.32132125
Ru       0.00000000       0.00000000       4.29515152       0.00000000       0.00000000      -0.32132125
2
Properties=species:S:1:pos:R:3:forces:R:3 energy=-4.857720114490585 pbc="F F F"
Ru       0.00000000       0.00000000       0.00000000       0.00000000       0.00000000       0.27839211
Ru       0.00000000       0.00000000       4.35393939       0.00000000       0.00000000      -0.27839211
2
Properties=species:S:1:pos:R:3:forces:R:3 energy=-4.842530816310725 pbc="F F F"
Ru       0.00000000       0.00000000       0.00000000       0.00000000       0.00000000       0.23895608
Ru       0.00000000       0.00000000       4.41272727       0.00000000       0.00000000      -0.23895608
2
Properties=species:S:1:pos:R:3:forces:R:3 energy=-4.82955463604662 pbc="F F F"
Ru       0.00000000       0.00000000       0.00000000       0.00000000       0.00000000       0.20308623
Ru       0.00000000       0.00000000       4.47151515       0.00000000       0.00000000      -0.20308623
2
Properties=species:S:1:pos:R:3:forces:R:3 energy=-4.81858248966098 pbc="F F F"
Ru       0.00000000       0.00000000       0.00000000       0.00000000       0.00000000       0.17077449
Ru       0.00000000       0.00000000       4.53030303       0.00000000       0.00000000      -0.17077449
2
Properties=species:S:1:pos:R:3:forces:R:3 energy=-4.809407951398853 pbc="F F F"
Ru       0.00000000       0.00000000       0.00000000       0.00000000       0.00000000       0.14193282
Ru       0.00000000       0.00000000       4.58909091       0.00000000       0.00000000      -0.14193282
2
Properties=species:S:1:pos:R:3:forces:R:3 energy=-4.801830054621943 pbc="F F F"
Ru       0.00000000       0.00000000       0.00000000       0.00000000       0.00000000       0.11640880
Ru       0.00000000       0.00000000       4.64787879       0.00000000       0.00000000      -0.11640880
2
Properties=species:S:1:pos:R:3:forces:R:3 energy=-4.79565976162039 pbc="F F F"
Ru       0.00000000       0.00000000       0.00000000       0.00000000       0.00000000       0.09400657
Ru       0.00000000       0.00000000       4.70666667       0.00000000       0.00000000      -0.09400657
2
Properties=species:S:1:pos:R:3:forces:R:3 energy=-4.790719919263262 pbc="F F F"
Ru       0.00000000       0.00000000       0.00000000       0.00000000       0.00000000       0.07452363
Ru       0.00000000       0.00000000       4.76545455       0.00000000       0.00000000      -0.07452363
2
Properties=species:S:1:pos:R:3:forces:R:3 energy=-4.786843790473209 pbc="F F F"
Ru       0.00000000       0.00000000       0.00000000       0.00000000       0.00000000       0.05776688
Ru       0.00000000       0.00000000       4.82424242       0.00000000       0.00000000      -0.05776688
2
Properties=species:S:1:pos:R:3:forces:R:3 energy=-4.783877327538481 pbc="F F F"
Ru       0.00000000       0.00000000       0.00000000       0.00000000       0.00000000       0.04358076
Ru       0.00000000       0.00000000       4.88303030       0.00000000       0.00000000      -0.04358076
2
Properties=species:S:1:pos:R:3:forces:R:3 energy=-4.781672493224896 pbc="F F F"
Ru       0.00000000       0.00000000       0.00000000       0.00000000       0.00000000       0.03183074
Ru       0.00000000       0.00000000       4.94181818       0.00000000       0.00000000      -0.03183074
2
Properties=species:S:1:pos:R:3:forces:R:3 energy=-4.7800891396140655 pbc="F F F"
Ru       0.00000000       0.00000000       0.00000000       0.00000000       0.00000000       0.02240512
Ru       0.00000000       0.00000000       5.00060606       0.00000000       0.00000000      -0.02240512
2
Properties=species:S:1:pos:R:3:forces:R:3 energy=-4.778995093634597 pbc="F F F"
Ru       0.00000000       0.00000000       0.00000000       0.00000000       0.00000000       0.01516020
Ru       0.00000000       0.00000000       5.05939394       0.00000000       0.00000000      -0.01516020
2
Properties=species:S:1:pos:R:3:forces:R:3 energy=-4.77826797887953 pbc="F F F"
Ru       0.00000000       0.00000000       0.00000000       0.00000000       0.00000000       0.00990246
Ru       0.00000000       0.00000000       5.11818182       0.00000000       0.00000000      -0.00990246
2
Properties=species:S:1:pos:R:3:forces:R:3 energy=-4.777796737984648 pbc="F F F"
Ru       0.00000000       0.00000000       0.00000000       0.00000000       0.00000000       0.00638757
Ru       0.00000000       0.00000000       5.17696970       0.00000000       0.00000000      -0.00638757
2
Properties=species:S:1:pos:R:3:forces:R:3 energy=-4.777487430702114 pbc="F F F"
Ru       0.00000000       0.00000000       0.00000000       0.00000000       0.00000000       0.00437008
Ru       0.00000000       0.00000000       5.23575758       0.00000000       0.00000000      -0.00437008
2
Properties=species:S:1:pos:R:3:forces:R:3 energy=-4.777258437018485 pbc="F F F"
Ru       0.00000000       0.00000000       0.00000000       0.00000000       0.00000000       0.00360331
Ru       0.00000000       0.00000000       5.29454545       0.00000000       0.00000000      -0.00360331
2
Properties=species:S:1:pos:R:3:forces:R:3 energy=-4.777047270675193 pbc="F F F"
Ru       0.00000000       0.00000000       0.00000000       0.00000000       0.00000000       0.00367366
Ru       0.00000000       0.00000000       5.35333333       0.00000000       0.00000000      -0.00367366
2
Properties=species:S:1:pos:R:3:forces:R:3 energy=-4.776825365872179 pbc="F F F"
Ru       0.00000000       0.00000000       0.00000000       0.00000000       0.00000000       0.00379620
Ru       0.00000000       0.00000000       5.41212121       0.00000000       0.00000000      -0.00379620
2
Properties=species:S:1:pos:R:3:forces:R:3 energy=-4.776613399413406 pbc="F F F"
Ru       0.00000000       0.00000000       0.00000000       0.00000000       0.00000000       0.00334755
Ru       0.00000000       0.00000000       5.47090909       0.00000000       0.00000000      -0.00334755
2
Properties=species:S:1:pos:R:3:forces:R:3 energy=-4.776425559364047 pbc="F F F"
Ru       0.00000000       0.00000000       0.00000000       0.00000000       0.00000000       0.00325526
Ru       0.00000000       0.00000000       5.52969697       0.00000000       0.00000000      -0.00325526
2
Properties=species:S:1:pos:R:3:forces:R:3 energy=-4.776201436532429 pbc="F F F"
Ru       0.00000000       0.00000000       0.00000000       0.00000000       0.00000000       0.00451111
Ru       0.00000000       0.00000000       5.58848485       0.00000000       0.00000000      -0.00451111
2
Properties=species:S:1:pos:R:3:forces:R:3 energy=-4.775900439811257 pbc="F F F"
Ru       0.00000000       0.00000000       0.00000000       0.00000000       0.00000000       0.00551482
Ru       0.00000000       0.00000000       5.64727273       0.00000000       0.00000000      -0.00551482
2
Properties=species:S:1:pos:R:3:forces:R:3 energy=-4.775571466671783 pbc="F F F"
Ru       0.00000000       0.00000000       0.00000000       0.00000000       0.00000000       0.00576306
Ru       0.00000000       0.00000000       5.70606061       0.00000000       0.00000000      -0.00576306
2
Properties=species:S:1:pos:R:3:forces:R:3 energy=-4.775165584564231 pbc="F F F"
Ru       0.00000000       0.00000000       0.00000000       0.00000000       0.00000000       0.00885375
Ru       0.00000000       0.00000000       5.76484848       0.00000000       0.00000000      -0.00885375
2
Properties=species:S:1:pos:R:3:forces:R:3 energy=-4.774467359239413 pbc="F F F"
Ru       0.00000000       0.00000000       0.00000000       0.00000000       0.00000000       0.01481580
Ru       0.00000000       0.00000000       5.82363636       0.00000000       0.00000000      -0.01481580
2
Properties=species:S:1:pos:R:3:forces:R:3 energy=-4.7735221293528785 pbc="F F F"
Ru       0.00000000       0.00000000       0.00000000       0.00000000       0.00000000       0.01617912
Ru       0.00000000       0.00000000       5.88242424       0.00000000       0.00000000      -0.01617912
2
Properties=species:S:1:pos:R:3:forces:R:3 energy=-4.7726661034347275 pbc="F F F"
Ru       0.00000000       0.00000000       0.00000000       0.00000000       0.00000000       0.01260669
Ru       0.00000000       0.00000000       5.94121212       0.00000000       0.00000000      -0.01260669
2
Properties=species:S:1:pos:R:3:forces:R:3 energy=-4.772012320721552 pbc="F F F"
Ru       0.00000000       0.00000000       0.00000000       0.00000000       0.00000000       0.01020642
Ru       0.00000000       0.00000000       6.00000000       0.00000000       0.00000000      -0.01020642
