2
Properties=species:S:1:pos:R:3:forces:R:3 energy=5552.292474284203 pbc="F F F"
Se       0.00000000       0.00000000       0.00000000       0.00000000       0.00000000  -80024.15625000
Se       0.00000000       0.00000000       0.18000000       0.00000000       0.00000000   80024.15625000
2
Properties=species:S:1:pos:R:3:forces:R:3 energy=2665.5480895185783 pbc="F F F"
Se       0.00000000       0.00000000       0.00000000       0.00000000       0.00000000  -28569.03710938
Se       0.00000000       0.00000000       0.23878788       0.00000000       0.00000000   28569.03710938
2
Properties=species:S:1:pos:R:3:forces:R:3 energy=1552.1204772170586 pbc="F F F"
Se       0.00000000       0.00000000       0.00000000       0.00000000       0.00000000  -12077.91308594
Se       0.00000000       0.00000000       0.29757576       0.00000000       0.00000000   12077.91308594
2
Properties=species:S:1:pos:R:3:forces:R:3 energy=1054.908929368664 pbc="F F F"
Se       0.00000000       0.00000000       0.00000000       0.00000000       0.00000000   -5766.61230469
Se       0.00000000       0.00000000       0.35636364       0.00000000       0.00000000    5766.61230469
2
Properties=species:S:1:pos:R:3:forces:R:3 energy=804.7930236164486 pbc="F F F"
Se       0.00000000       0.00000000       0.00000000       0.00000000       0.00000000   -3111.23339844
Se       0.00000000       0.00000000       0.41515152       0.00000000       0.00000000    3111.23339844
2
Properties=species:S:1:pos:R:3:forces:R:3 energy=659.9000793058538 pbc="F F F"
Se       0.00000000       0.00000000       0.00000000       0.00000000       0.00000000   -1983.02111816
Se       0.00000000       0.00000000       0.47393939       0.00000000       0.00000000    1983.02111816
2
Properties=species:S:1:pos:R:3:forces:R:3 energy=558.2293640150042 pbc="F F F"
Se       0.00000000       0.00000000       0.00000000       0.00000000       0.00000000   -1556.03515625
Se       0.00000000       0.00000000       0.53272727       0.00000000       0.00000000    1556.03515625
2
Properties=species:S:1:pos:R:3:forces:R:3 energy=469.4133240488016 pbc="F F F"
Se       0.00000000       0.00000000       0.00000000       0.00000000       0.00000000   -1470.18395996
Se       0.00000000       0.00000000       0.59151515       0.00000000       0.00000000    1470.18395996
2
Properties=species:S:1:pos:R:3:forces:R:3 energy=384.3431337363235 pbc="F F F"
Se       0.00000000       0.00000000       0.00000000       0.00000000       0.00000000   -1402.82727051
Se       0.00000000       0.00000000       0.65030303       0.00000000       0.00000000    1402.82727051
2
Properties=species:S:1:pos:R:3:forces:R:3 energy=311.4738712279125 pbc="F F F"
Se       0.00000000       0.00000000       0.00000000       0.00000000       0.00000000   -1043.35986328
Se       0.00000000       0.00000000       0.70909091       0.00000000       0.00000000    1043.35986328
2
Properties=species:S:1:pos:R:3:forces:R:3 energy=257.4036200481728 pbc="F F F"
Se       0.00000000       0.00000000       0.00000000       0.00000000       0.00000000    -832.29290771
Se       0.00000000       0.00000000       0.76787879       0.00000000       0.00000000     832.29290771
2
Properties=species:S:1:pos:R:3:forces:R:3 energy=211.77729295167686 pbc="F F F"
Se       0.00000000       0.00000000       0.00000000       0.00000000       0.00000000    -712.41625977
Se       0.00000000       0.00000000       0.82666667       0.00000000       0.00000000     712.41625977
2
Properties=species:S:1:pos:R:3:forces:R:3 energy=174.33489548227402 pbc="F F F"
Se       0.00000000       0.00000000       0.00000000       0.00000000       0.00000000    -564.62780762
Se       0.00000000       0.00000000       0.88545455       0.00000000       0.00000000     564.62780762
2
Properties=species:S:1:pos:R:3:forces:R:3 energy=144.39326119307876 pbc="F F F"
Se       0.00000000       0.00000000       0.00000000       0.00000000       0.00000000    -462.65237427
Se       0.00000000       0.00000000       0.94424242       0.00000000       0.00000000     462.65237427
2
Properties=species:S:1:pos:R:3:forces:R:3 energy=119.28542086080246 pbc="F F F"
Se       0.00000000       0.00000000       0.00000000       0.00000000       0.00000000    -394.76492310
Se       0.00000000       0.00000000       1.00303030       0.00000000       0.00000000     394.76492310
2
Properties=species:S:1:pos:R:3:forces:R:3 energy=97.6915732435777 pbc="F F F"
Se       0.00000000       0.00000000       0.00000000       0.00000000       0.00000000    -341.86938477
Se       0.00000000       0.00000000       1.06181818       0.00000000       0.00000000     341.86938477
2
Properties=species:S:1:pos:R:3:forces:R:3 energy=78.90437439393465 pbc="F F F"
Se       0.00000000       0.00000000       0.00000000       0.00000000       0.00000000    -298.40731812
Se       0.00000000       0.00000000       1.12060606       0.00000000       0.00000000     298.40731812
2
Properties=species:S:1:pos:R:3:forces:R:3 energy=62.55305493785378 pbc="F F F"
Se       0.00000000       0.00000000       0.00000000       0.00000000       0.00000000    -257.72805786
Se       0.00000000       0.00000000       1.17939394       0.00000000       0.00000000     257.72805786
2
Properties=species:S:1:pos:R:3:forces:R:3 energy=48.62358838871268 pbc="F F F"
Se       0.00000000       0.00000000       0.00000000       0.00000000       0.00000000    -216.18809509
Se       0.00000000       0.00000000       1.23818182       0.00000000       0.00000000     216.18809509
2
Properties=species:S:1:pos:R:3:forces:R:3 energy=37.07534840753395 pbc="F F F"
Se       0.00000000       0.00000000       0.00000000       0.00000000       0.00000000    -177.72430420
Se       0.00000000       0.00000000       1.29696970       0.00000000       0.00000000     177.72430420
2
Properties=species:S:1:pos:R:3:forces:R:3 energy=27.58278893557759 pbc="F F F"
Se       0.00000000       0.00000000       0.00000000       0.00000000       0.00000000    -146.30279541
Se       0.00000000       0.00000000       1.35575758       0.00000000       0.00000000     146.30279541
2
Properties=species:S:1:pos:R:3:forces:R:3 energy=19.791746093230742 pbc="F F F"
Se       0.00000000       0.00000000       0.00000000       0.00000000       0.00000000    -119.13769531
Se       0.00000000       0.00000000       1.41454545       0.00000000       0.00000000     119.13769531
2
Properties=species:S:1:pos:R:3:forces:R:3 energy=13.537668437008735 pbc="F F F"
Se       0.00000000       0.00000000       0.00000000       0.00000000       0.00000000     -94.01863861
Se       0.00000000       0.00000000       1.47333333       0.00000000       0.00000000      94.01863861
2
Properties=species:S:1:pos:R:3:forces:R:3 energy=8.673782958047196 pbc="F F F"
Se       0.00000000       0.00000000       0.00000000       0.00000000       0.00000000     -72.13195801
Se       0.00000000       0.00000000       1.53212121       0.00000000       0.00000000      72.13195801
2
Properties=species:S:1:pos:R:3:forces:R:3 energy=4.969767656485423 pbc="F F F"
Se       0.00000000       0.00000000       0.00000000       0.00000000       0.00000000     -54.62479782
Se       0.00000000       0.00000000       1.59090909       0.00000000       0.00000000      54.62479782
2
Properties=species:S:1:pos:R:3:forces:R:3 energy=2.1698785122379975 pbc="F F F"
Se       0.00000000       0.00000000       0.00000000       0.00000000       0.00000000     -41.25086212
Se       0.00000000       0.00000000       1.64969697       0.00000000       0.00000000      41.25086212
2
Properties=species:S:1:pos:R:3:forces:R:3 energy=0.05573424114148497 pbc="F F F"
Se       0.00000000       0.00000000       0.00000000       0.00000000       0.00000000     -31.14209175
Se       0.00000000       0.00000000       1.70848485       0.00000000       0.00000000      31.14209175
2
Properties=species:S:1:pos:R:3:forces:R:3 energy=-1.5390394208637648 pbc="F F F"
Se       0.00000000       0.00000000       0.00000000       0.00000000       0.00000000     -23.45718575
Se       0.00000000       0.00000000       1.76727273       0.00000000       0.00000000      23.45718575
2
Properties=species:S:1:pos:R:3:forces:R:3 energy=-2.736845390194949 pbc="F F F"
Se       0.00000000       0.00000000       0.00000000       0.00000000       0.00000000     -17.54299355
Se       0.00000000       0.00000000       1.82606061       0.00000000       0.00000000      17.54299355
2
Properties=species:S:1:pos:R:3:forces:R:3 energy=-3.6268332129696135 pbc="F F F"
Se       0.00000000       0.00000000       0.00000000       0.00000000       0.00000000     -12.91743183
Se       0.00000000       0.00000000       1.88484848       0.00000000       0.00000000      12.91743183
2
Properties=species:S:1:pos:R:3:forces:R:3 energy=-4.274179419834193 pbc="F F F"
Se       0.00000000       0.00000000       0.00000000       0.00000000       0.00000000      -9.24281502
Se       0.00000000       0.00000000       1.94363636       0.00000000       0.00000000       9.24281502
2
Properties=species:S:1:pos:R:3:forces:R:3 energy=-4.727855313808886 pbc="F F F"
Se       0.00000000       0.00000000       0.00000000       0.00000000       0.00000000      -6.30003595
Se       0.00000000       0.00000000       2.00242424       0.00000000       0.00000000       6.30003595
2
Properties=species:S:1:pos:R:3:forces:R:3 energy=-5.026441271504911 pbc="F F F"
Se       0.00000000       0.00000000       0.00000000       0.00000000       0.00000000      -3.94697165
Se       0.00000000       0.00000000       2.06121212       0.00000000       0.00000000       3.94697165
2
Properties=species:S:1:pos:R:3:forces:R:3 energy=-5.20142854734159 pbc="F F F"
Se       0.00000000       0.00000000       0.00000000       0.00000000       0.00000000      -2.07950854
Se       0.00000000       0.00000000       2.12000000       0.00000000       0.00000000       2.07950854
2
Properties=species:S:1:pos:R:3:forces:R:3 energy=-5.2787226935888345 pbc="F F F"
Se       0.00000000       0.00000000       0.00000000       0.00000000       0.00000000      -0.60942048
Se       0.00000000       0.00000000       2.17878788       0.00000000       0.00000000       0.60942048
2
Properties=species:S:1:pos:R:3:forces:R:3 energy=-5.279298010695228 pbc="F F F"
Se       0.00000000       0.00000000       0.00000000       0.00000000       0.00000000       0.54329711
Se       0.00000000       0.00000000       2.23757576       0.00000000       0.00000000      -0.54329711
2
Properties=species:S:1:pos:R:3:forces:R:3 energy=-5.219620904160764 pbc="F F F"
Se       0.00000000       0.00000000       0.00000000       0.00000000       0.00000000       1.45200622
Se       0.00000000       0.00000000       2.29636364       0.00000000       0.00000000      -1.45200622
2
Properties=species:S:1:pos:R:3:forces:R:3 energy=-5.11206768425029 pbc="F F F"
Se       0.00000000       0.00000000       0.00000000       0.00000000       0.00000000       2.18214989
Se       0.00000000       0.00000000       2.35515152       0.00000000       0.00000000      -2.18214989
2
Properties=species:S:1:pos:R:3:forces:R:3 energy=-4.965508458597456 pbc="F F F"
Se       0.00000000       0.00000000       0.00000000       0.00000000       0.00000000       2.78630352
Se       0.00000000       0.00000000       2.41393939       0.00000000       0.00000000      -2.78630352
2
Properties=species:S:1:pos:R:3:forces:R:3 energy=-4.786311218211352 pbc="F F F"
Se       0.00000000       0.00000000       0.00000000       0.00000000       0.00000000       3.29526448
Se       0.00000000       0.00000000       2.47272727       0.00000000       0.00000000      -3.29526448
2
Properties=species:S:1:pos:R:3:forces:R:3 energy=-4.579880565643461 pbc="F F F"
Se       0.00000000       0.00000000       0.00000000       0.00000000       0.00000000       3.71066332
Se       0.00000000       0.00000000       2.53151515       0.00000000       0.00000000      -3.71066332
2
Properties=species:S:1:pos:R:3:forces:R:3 energy=-4.352324241848642 pbc="F F F"
Se       0.00000000       0.00000000       0.00000000       0.00000000       0.00000000       4.00857067
Se       0.00000000       0.00000000       2.59030303       0.00000000       0.00000000      -4.00857067
2
Properties=species:S:1:pos:R:3:forces:R:3 energy=-4.111495612590203 pbc="F F F"
Se       0.00000000       0.00000000       0.00000000       0.00000000       0.00000000       4.15776396
Se       0.00000000       0.00000000       2.64909091       0.00000000       0.00000000      -4.15776396
2
Properties=species:S:1:pos:R:3:forces:R:3 energy=-3.866682523522627 pbc="F F F"
Se       0.00000000       0.00000000       0.00000000       0.00000000       0.00000000       4.14425087
Se       0.00000000       0.00000000       2.70787879       0.00000000       0.00000000      -4.14425087
2
Properties=species:S:1:pos:R:3:forces:R:3 energy=-3.6271038658139636 pbc="F F F"
Se       0.00000000       0.00000000       0.00000000       0.00000000       0.00000000       3.98510075
Se       0.00000000       0.00000000       2.76666667       0.00000000       0.00000000      -3.98510075
2
Properties=species:S:1:pos:R:3:forces:R:3 energy=-3.4001655007221103 pbc="F F F"
Se       0.00000000       0.00000000       0.00000000       0.00000000       0.00000000       3.72231483
Se       0.00000000       0.00000000       2.82545455       0.00000000       0.00000000      -3.72231483
2
Properties=species:S:1:pos:R:3:forces:R:3 energy=-3.1905317926275107 pbc="F F F"
Se       0.00000000       0.00000000       0.00000000       0.00000000       0.00000000       3.40390253
Se       0.00000000       0.00000000       2.88424242       0.00000000       0.00000000      -3.40390253
2
Properties=species:S:1:pos:R:3:forces:R:3 energy=-3.0002887285229494 pbc="F F F"
Se       0.00000000       0.00000000       0.00000000       0.00000000       0.00000000       3.06760168
Se       0.00000000       0.00000000       2.94303030       0.00000000       0.00000000      -3.06760168
2
Properties=species:S:1:pos:R:3:forces:R:3 energy=-2.829756705124723 pbc="F F F"
Se       0.00000000       0.00000000       0.00000000       0.00000000       0.00000000       2.73593998
Se       0.00000000       0.00000000       3.00181818       0.00000000       0.00000000      -2.73593998
2
Properties=species:S:1:pos:R:3:forces:R:3 energy=-2.6782930428019243 pbc="F F F"
Se       0.00000000       0.00000000       0.00000000       0.00000000       0.00000000       2.42022586
Se       0.00000000       0.00000000       3.06060606       0.00000000       0.00000000      -2.42022586
2
Properties=species:S:1:pos:R:3:forces:R:3 energy=-2.5447665779330277 pbc="F F F"
Se       0.00000000       0.00000000       0.00000000       0.00000000       0.00000000       2.12646866
Se       0.00000000       0.00000000       3.11939394       0.00000000       0.00000000      -2.12646866
2
Properties=species:S:1:pos:R:3:forces:R:3 energy=-2.427760712339992 pbc="F F F"
Se       0.00000000       0.00000000       0.00000000       0.00000000       0.00000000       1.85877097
Se       0.00000000       0.00000000       3.17818182       0.00000000       0.00000000      -1.85877097
2
Properties=species:S:1:pos:R:3:forces:R:3 energy=-2.325655981312441 pbc="F F F"
Se       0.00000000       0.00000000       0.00000000       0.00000000       0.00000000       1.61983037
Se       0.00000000       0.00000000       3.23696970       0.00000000       0.00000000      -1.61983037
2
Properties=species:S:1:pos:R:3:forces:R:3 energy=-2.236728815920211 pbc="F F F"
Se       0.00000000       0.00000000       0.00000000       0.00000000       0.00000000       1.41036153
Se       0.00000000       0.00000000       3.29575758       0.00000000       0.00000000      -1.41036153
2
Properties=species:S:1:pos:R:3:forces:R:3 energy=-2.1592809939664206 pbc="F F F"
Se       0.00000000       0.00000000       0.00000000       0.00000000       0.00000000       1.22891414
Se       0.00000000       0.00000000       3.35454545       0.00000000       0.00000000      -1.22891414
2
Properties=species:S:1:pos:R:3:forces:R:3 energy=-2.0917484325513636 pbc="F F F"
Se       0.00000000       0.00000000       0.00000000       0.00000000       0.00000000       1.07243454
Se       0.00000000       0.00000000       3.41333333       0.00000000       0.00000000      -1.07243454
2
Properties=species:S:1:pos:R:3:forces:R:3 energy=-2.0327725417519296 pbc="F F F"
Se       0.00000000       0.00000000       0.00000000       0.00000000       0.00000000       0.93718976
Se       0.00000000       0.00000000       3.47212121       0.00000000       0.00000000      -0.93718976
2
Properties=species:S:1:pos:R:3:forces:R:3 energy=-1.9812127934501123 pbc="F F F"
Se       0.00000000       0.00000000       0.00000000       0.00000000       0.00000000       0.81957608
Se       0.00000000       0.00000000       3.53090909       0.00000000       0.00000000      -0.81957608
2
Properties=species:S:1:pos:R:3:forces:R:3 energy=-1.9361238446527518 pbc="F F F"
Se       0.00000000       0.00000000       0.00000000       0.00000000       0.00000000       0.71658379
Se       0.00000000       0.00000000       3.58969697       0.00000000       0.00000000      -0.71658379
2
Properties=species:S:1:pos:R:3:forces:R:3 energy=-1.8967178926986132 pbc="F F F"
Se       0.00000000       0.00000000       0.00000000       0.00000000       0.00000000       0.62594873
Se       0.00000000       0.00000000       3.64848485       0.00000000       0.00000000      -0.62594873
2
Properties=species:S:1:pos:R:3:forces:R:3 energy=-1.86231763827417 pbc="F F F"
Se       0.00000000       0.00000000       0.00000000       0.00000000       0.00000000       0.54605746
Se       0.00000000       0.00000000       3.70727273       0.00000000       0.00000000      -0.54605746
2
Properties=species:S:1:pos:R:3:forces:R:3 energy=-1.8323266518177066 pbc="F F F"
Se       0.00000000       0.00000000       0.00000000       0.00000000       0.00000000       0.47576734
Se       0.00000000       0.00000000       3.76606061       0.00000000       0.00000000      -0.47576734
2
Properties=species:S:1:pos:R:3:forces:R:3 energy=-1.8062076045687119 pbc="F F F"
Se       0.00000000       0.00000000       0.00000000       0.00000000       0.00000000       0.41421711
Se       0.00000000       0.00000000       3.82484848       0.00000000       0.00000000      -0.41421711
2
Properties=species:S:1:pos:R:3:forces:R:3 energy=-1.7834679313589519 pbc="F F F"
Se       0.00000000       0.00000000       0.00000000       0.00000000       0.00000000       0.36066446
Se       0.00000000       0.00000000       3.88363636       0.00000000       0.00000000      -0.36066446
2
Properties=species:S:1:pos:R:3:forces:R:3 energy=-1.7636593260968307 pbc="F F F"
Se       0.00000000       0.00000000       0.00000000       0.00000000       0.00000000       0.31440443
Se       0.00000000       0.00000000       3.94242424       0.00000000       0.00000000      -0.31440443
2
Properties=species:S:1:pos:R:3:forces:R:3 energy=-1.7463730098257628 pbc="F F F"
Se       0.00000000       0.00000000       0.00000000       0.00000000       0.00000000       0.27472961
Se       0.00000000       0.00000000       4.00121212       0.00000000       0.00000000      -0.27472961
2
Properties=species:S:1:pos:R:3:forces:R:3 energy=-1.7312426844458828 pbc="F F F"
Se       0.00000000       0.00000000       0.00000000       0.00000000       0.00000000       0.24093509
Se       0.00000000       0.00000000       4.06000000       0.00000000       0.00000000      -0.24093509
2
Properties=species:S:1:pos:R:3:forces:R:3 energy=-1.7179429929127068 pbc="F F F"
Se       0.00000000       0.00000000       0.00000000       0.00000000       0.00000000       0.21235284
Se       0.00000000       0.00000000       4.11878788       0.00000000       0.00000000      -0.21235284
2
Properties=species:S:1:pos:R:3:forces:R:3 energy=-1.7061848815781762 pbc="F F F"
Se       0.00000000       0.00000000       0.00000000       0.00000000       0.00000000       0.18836911
Se       0.00000000       0.00000000       4.17757576       0.00000000       0.00000000      -0.18836911
2
Properties=species:S:1:pos:R:3:forces:R:3 energy=-1.6957155114916374 pbc="F F F"
Se       0.00000000       0.00000000       0.00000000       0.00000000       0.00000000       0.16844249
Se       0.00000000       0.00000000       4.23636364       0.00000000       0.00000000      -0.16844249
2
Properties=species:S:1:pos:R:3:forces:R:3 energy=-1.6863098202988205 pbc="F F F"
Se       0.00000000       0.00000000       0.00000000       0.00000000       0.00000000       0.15209588
Se       0.00000000       0.00000000       4.29515152       0.00000000       0.00000000      -0.15209588
2
Properties=species:S:1:pos:R:3:forces:R:3 energy=-1.6777710200858003 pbc="F F F"
Se       0.00000000       0.00000000       0.00000000       0.00000000       0.00000000       0.13890229
Se       0.00000000       0.00000000       4.35393939       0.00000000       0.00000000      -0.13890229
2
Properties=species:S:1:pos:R:3:forces:R:3 energy=-1.6699246800960759 pbc="F F F"
Se       0.00000000       0.00000000       0.00000000       0.00000000       0.00000000       0.12845276
Se       0.00000000       0.00000000       4.41272727       0.00000000       0.00000000      -0.12845276
2
Properties=species:S:1:pos:R:3:forces:R:3 energy=-1.6626222012229908 pbc="F F F"
Se       0.00000000       0.00000000       0.00000000       0.00000000       0.00000000       0.12033769
Se       0.00000000       0.00000000       4.47151515       0.00000000       0.00000000      -0.12033769
2
Properties=species:S:1:pos:R:3:forces:R:3 energy=-1.6557386769941231 pbc="F F F"
Se       0.00000000       0.00000000       0.00000000       0.00000000       0.00000000       0.11412004
Se       0.00000000       0.00000000       4.53030303       0.00000000       0.00000000      -0.11412004
2
Properties=species:S:1:pos:R:3:forces:R:3 energy=-1.6491766128179284 pbc="F F F"
Se       0.00000000       0.00000000       0.00000000       0.00000000       0.00000000       0.10932685
Se       0.00000000       0.00000000       4.58909091       0.00000000       0.00000000      -0.10932685
2
Properties=species:S:1:pos:R:3:forces:R:3 energy=-1.6428666570785881 pbc="F F F"
Se       0.00000000       0.00000000       0.00000000       0.00000000       0.00000000       0.10545919
Se       0.00000000       0.00000000       4.64787879       0.00000000       0.00000000      -0.10545919
2
Properties=species:S:1:pos:R:3:forces:R:3 energy=-1.6367686827311252 pbc="F F F"
Se       0.00000000       0.00000000       0.00000000       0.00000000       0.00000000       0.10201723
Se       0.00000000       0.00000000       4.70666667       0.00000000       0.00000000      -0.10201723
2
Properties=species:S:1:pos:R:3:forces:R:3 energy=-1.630872383347853 pbc="F F F"
Se       0.00000000       0.00000000       0.00000000       0.00000000       0.00000000       0.09855253
Se       0.00000000       0.00000000       4.76545455       0.00000000       0.00000000      -0.09855253
2
Properties=species:S:1:pos:R:3:forces:R:3 energy=-1.6251879268604985 pbc="F F F"
Se       0.00000000       0.00000000       0.00000000       0.00000000       0.00000000       0.09474209
Se       0.00000000       0.00000000       4.82424242       0.00000000       0.00000000      -0.09474209
2
Properties=species:S:1:pos:R:3:forces:R:3 energy=-1.6197424085838708 pbc="F F F"
Se       0.00000000       0.00000000       0.00000000       0.00000000       0.00000000       0.09047443
Se       0.00000000       0.00000000       4.88303030       0.00000000       0.00000000      -0.09047443
2
Properties=species:S:1:pos:R:3:forces:R:3 energy=-1.6145562644075966 pbc="F F F"
Se       0.00000000       0.00000000       0.00000000       0.00000000       0.00000000       0.08593298
Se       0.00000000       0.00000000       4.94181818       0.00000000       0.00000000      -0.08593298
2
Properties=species:S:1:pos:R:3:forces:R:3 energy=-1.6096334413654412 pbc="F F F"
Se       0.00000000       0.00000000       0.00000000       0.00000000       0.00000000       0.08165616
Se       0.00000000       0.00000000       5.00060606       0.00000000       0.00000000      -0.08165616
2
Properties=species:S:1:pos:R:3:forces:R:3 energy=-1.6049333339350618 pbc="F F F"
Se       0.00000000       0.00000000       0.00000000       0.00000000       0.00000000       0.07849818
Se       0.00000000       0.00000000       5.05939394       0.00000000       0.00000000      -0.07849818
2
Properties=species:S:1:pos:R:3:forces:R:3 energy=-1.6003626595913405 pbc="F F F"
Se       0.00000000       0.00000000       0.00000000       0.00000000       0.00000000       0.07743663
Se       0.00000000       0.00000000       5.11818182       0.00000000       0.00000000      -0.07743663
2
Properties=species:S:1:pos:R:3:forces:R:3 energy=-1.5957737514465065 pbc="F F F"
Se       0.00000000       0.00000000       0.00000000       0.00000000       0.00000000       0.07916799
Se       0.00000000       0.00000000       5.17696970       0.00000000       0.00000000      -0.07916799
2
Properties=species:S:1:pos:R:3:forces:R:3 energy=-1.5910013095573607 pbc="F F F"
Se       0.00000000       0.00000000       0.00000000       0.00000000       0.00000000       0.08357846
Se       0.00000000       0.00000000       5.23575758       0.00000000       0.00000000      -0.08357846
2
Properties=species:S:1:pos:R:3:forces:R:3 energy=-1.5859195037588818 pbc="F F F"
Se       0.00000000       0.00000000       0.00000000       0.00000000       0.00000000       0.08936218
Se       0.00000000       0.00000000       5.29454545       0.00000000       0.00000000      -0.08936218
2
Properties=species:S:1:pos:R:3:forces:R:3 energy=-1.5805120112897248 pbc="F F F"
Se       0.00000000       0.00000000       0.00000000       0.00000000       0.00000000       0.09425019
Se       0.00000000       0.00000000       5.35333333       0.00000000       0.00000000      -0.09425019
2
Properties=species:S:1:pos:R:3:forces:R:3 energy=-1.574895028540859 pbc="F F F"
Se       0.00000000       0.00000000       0.00000000       0.00000000       0.00000000       0.09632136
Se       0.00000000       0.00000000       5.41212121       0.00000000       0.00000000      -0.09632136
2
Properties=species:S:1:pos:R:3:forces:R:3 energy=-1.5692432599057575 pbc="F F F"
Se       0.00000000       0.00000000       0.00000000       0.00000000       0.00000000       0.09554214
Se       0.00000000       0.00000000       5.47090909       0.00000000       0.00000000      -0.09554214
2
Properties=species:S:1:pos:R:3:forces:R:3 energy=-1.5637094756645935 pbc="F F F"
Se       0.00000000       0.00000000       0.00000000       0.00000000       0.00000000       0.09214751
Se       0.00000000       0.00000000       5.52969697       0.00000000       0.00000000      -0.09214751
2
Properties=species:S:1:pos:R:3:forces:R:3 energy=-1.5584995148222343 pbc="F F F"
Se       0.00000000       0.00000000       0.00000000       0.00000000       0.00000000       0.08421691
Se       0.00000000       0.00000000       5.58848485       0.00000000       0.00000000      -0.08421691
2
Properties=species:S:1:pos:R:3:forces:R:3 energy=-1.5539109013944783 pbc="F F F"
Se       0.00000000       0.00000000       0.00000000       0.00000000       0.00000000       0.07127262
Se       0.00000000       0.00000000       5.64727273       0.00000000       0.00000000      -0.07127262
2
Properties=species:S:1:pos:R:3:forces:R:3 energy=-1.5501674017130467 pbc="F F F"
Se       0.00000000       0.00000000       0.00000000       0.00000000       0.00000000       0.05609196
Se       0.00000000       0.00000000       5.70606061       0.00000000       0.00000000      -0.05609196
2
Properties=species:S:1:pos:R:3:forces:R:3 energy=-1.5472515480450533 pbc="F F F"
Se       0.00000000       0.00000000       0.00000000       0.00000000       0.00000000       0.04359010
Se       0.00000000       0.00000000       5.76484848       0.00000000       0.00000000      -0.04359010
2
Properties=species:S:1:pos:R:3:forces:R:3 energy=-1.545004410036736 pbc="F F F"
Se       0.00000000       0.00000000       0.00000000       0.00000000       0.00000000       0.03268174
Se       0.00000000       0.00000000       5.82363636       0.00000000       0.00000000      -0.03268174
2
Properties=species:S:1:pos:R:3:forces:R:3 energy=-1.5434642738487605 pbc="F F F"
Se       0.00000000       0.00000000       0.00000000       0.00000000       0.00000000       0.01964290
Se       0.00000000       0.00000000       5.88242424       0.00000000       0.00000000      -0.01964290
2
Properties=species:S:1:pos:R:3:forces:R:3 energy=-1.5426662588640618 pbc="F F F"
Se       0.00000000       0.00000000       0.00000000       0.00000000       0.00000000       0.00817711
Se       0.00000000       0.00000000       5.94121212       0.00000000       0.00000000      -0.00817711
2
Properties=species:S:1:pos:R:3:forces:R:3 energy=-1.5423645548954805 pbc="F F F"
Se       0.00000000       0.00000000       0.00000000       0.00000000       0.00000000       0.00354915
Se       0.00000000       0.00000000       6.00000000       0.00000000       0.00000000      -0.00354915
