2
Properties=species:S:1:pos:R:3:forces:R:3 energy=-1047938.0120302546 pbc="F F F"
Sm       0.00000000       0.00000000       0.00000000       0.00000000       0.00000000 -121387.01562500
Sm       0.00000000       0.00000000       0.18000000       0.00000000       0.00000000  121387.01562500
2
Properties=species:S:1:pos:R:3:forces:R:3 energy=-1046849.7620302546 pbc="F F F"
Sm       0.00000000       0.00000000       0.00000000       0.00000000       0.00000000  146248.45312500
Sm       0.00000000       0.00000000       0.23878788       0.00000000       0.00000000 -146248.45312500
2
Properties=species:S:1:pos:R:3:forces:R:3 energy=-1030206.6995302546 pbc="F F F"
Sm       0.00000000       0.00000000       0.00000000       0.00000000       0.00000000  434287.37500000
Sm       0.00000000       0.00000000       0.29757576       0.00000000       0.00000000 -434287.37500000
2
Properties=species:S:1:pos:R:3:forces:R:3 energy=-993509.3870302546 pbc="F F F"
Sm       0.00000000       0.00000000       0.00000000       0.00000000       0.00000000  836067.93750000
Sm       0.00000000       0.00000000       0.35636364       0.00000000       0.00000000 -836067.93750000
2
Properties=species:S:1:pos:R:3:forces:R:3 energy=-929319.3245302546 pbc="F F F"
Sm       0.00000000       0.00000000       0.00000000       0.00000000       0.00000000 1367397.37500000
Sm       0.00000000       0.00000000       0.41515152       0.00000000       0.00000000 -1367397.37500000
2
Properties=species:S:1:pos:R:3:forces:R:3 energy=-831114.3245302292 pbc="F F F"
Sm       0.00000000       0.00000000       0.00000000       0.00000000       0.00000000 1979466.00000000
Sm       0.00000000       0.00000000       0.47393939       0.00000000       0.00000000 -1979466.00000000
2
Properties=species:S:1:pos:R:3:forces:R:3 energy=-697387.5120302292 pbc="F F F"
Sm       0.00000000       0.00000000       0.00000000       0.00000000       0.00000000 2548161.00000000
Sm       0.00000000       0.00000000       0.53272727       0.00000000       0.00000000 -2548161.00000000
2
Properties=species:S:1:pos:R:3:forces:R:3 energy=-535971.449530204 pbc="F F F"
Sm       0.00000000       0.00000000       0.00000000       0.00000000       0.00000000 2889025.00000000
Sm       0.00000000       0.00000000       0.59151515       0.00000000       0.00000000 -2889025.00000000
2
Properties=species:S:1:pos:R:3:forces:R:3 energy=-365699.6370301532 pbc="F F F"
Sm       0.00000000       0.00000000       0.00000000       0.00000000       0.00000000 2826798.75000000
Sm       0.00000000       0.00000000       0.65030303       0.00000000       0.00000000 -2826798.75000000
2
Properties=species:S:1:pos:R:3:forces:R:3 energy=-212613.32453007717 pbc="F F F"
Sm       0.00000000       0.00000000       0.00000000       0.00000000       0.00000000 2312653.50000000
Sm       0.00000000       0.00000000       0.70909091       0.00000000       0.00000000 -2312653.50000000
2
Properties=species:S:1:pos:R:3:forces:R:3 energy=-98440.89484245046 pbc="F F F"
Sm       0.00000000       0.00000000       0.00000000       0.00000000       0.00000000 1521935.00000000
Sm       0.00000000       0.00000000       0.76787879       0.00000000       0.00000000 -1521935.00000000
2
Properties=species:S:1:pos:R:3:forces:R:3 energy=-33342.9612485484 pbc="F F F"
Sm       0.00000000       0.00000000       0.00000000       0.00000000       0.00000000  726697.37500000
Sm       0.00000000       0.00000000       0.82666667       0.00000000       0.00000000 -726697.37500000
2
Properties=species:S:1:pos:R:3:forces:R:3 energy=-7123.84015455765 pbc="F F F"
Sm       0.00000000       0.00000000       0.00000000       0.00000000       0.00000000  227460.39062500
Sm       0.00000000       0.00000000       0.88545455       0.00000000       0.00000000 -227460.39062500
2
Properties=species:S:1:pos:R:3:forces:R:3 energy=-667.3560233561501 pbc="F F F"
Sm       0.00000000       0.00000000       0.00000000       0.00000000       0.00000000   36625.31640625
Sm       0.00000000       0.00000000       0.94424242       0.00000000       0.00000000  -36625.31640625
2
Properties=species:S:1:pos:R:3:forces:R:3 energy=137.6956433471106 pbc="F F F"
Sm       0.00000000       0.00000000       0.00000000       0.00000000       0.00000000    2939.65405273
Sm       0.00000000       0.00000000       1.00303030       0.00000000       0.00000000   -2939.65405273
2
Properties=species:S:1:pos:R:3:forces:R:3 energy=185.73897892894124 pbc="F F F"
Sm       0.00000000       0.00000000       0.00000000       0.00000000       0.00000000    -275.95678711
Sm       0.00000000       0.00000000       1.06181818       0.00000000       0.00000000     275.95678711
2
Properties=species:S:1:pos:R:3:forces:R:3 energy=158.48504298499688 pbc="F F F"
Sm       0.00000000       0.00000000       0.00000000       0.00000000       0.00000000    -437.75518799
Sm       0.00000000       0.00000000       1.12060606       0.00000000       0.00000000     437.75518799
2
Properties=species:S:1:pos:R:3:forces:R:3 energy=130.97201305619703 pbc="F F F"
Sm       0.00000000       0.00000000       0.00000000       0.00000000       0.00000000    -484.52593994
Sm       0.00000000       0.00000000       1.17939394       0.00000000       0.00000000     484.52593994
2
Properties=species:S:1:pos:R:3:forces:R:3 energy=105.0660620090968 pbc="F F F"
Sm       0.00000000       0.00000000       0.00000000       0.00000000       0.00000000    -392.46194458
Sm       0.00000000       0.00000000       1.23818182       0.00000000       0.00000000     392.46194458
2
Properties=species:S:1:pos:R:3:forces:R:3 energy=84.70462122983051 pbc="F F F"
Sm       0.00000000       0.00000000       0.00000000       0.00000000       0.00000000    -306.23791504
Sm       0.00000000       0.00000000       1.29696970       0.00000000       0.00000000     306.23791504
2
Properties=species:S:1:pos:R:3:forces:R:3 energy=68.36719059864917 pbc="F F F"
Sm       0.00000000       0.00000000       0.00000000       0.00000000       0.00000000    -253.80865479
Sm       0.00000000       0.00000000       1.35575758       0.00000000       0.00000000     253.80865479
2
Properties=species:S:1:pos:R:3:forces:R:3 energy=54.55363295117798 pbc="F F F"
Sm       0.00000000       0.00000000       0.00000000       0.00000000       0.00000000    -217.51364136
Sm       0.00000000       0.00000000       1.41454545       0.00000000       0.00000000     217.51364136
2
Properties=species:S:1:pos:R:3:forces:R:3 energy=42.750524418424334 pbc="F F F"
Sm       0.00000000       0.00000000       0.00000000       0.00000000       0.00000000    -183.59335327
Sm       0.00000000       0.00000000       1.47333333       0.00000000       0.00000000     183.59335327
2
Properties=species:S:1:pos:R:3:forces:R:3 energy=33.013506326760115 pbc="F F F"
Sm       0.00000000       0.00000000       0.00000000       0.00000000       0.00000000    -147.95884705
Sm       0.00000000       0.00000000       1.53212121       0.00000000       0.00000000     147.95884705
2
Properties=species:S:1:pos:R:3:forces:R:3 energy=25.225431382562064 pbc="F F F"
Sm       0.00000000       0.00000000       0.00000000       0.00000000       0.00000000    -118.37371826
Sm       0.00000000       0.00000000       1.59090909       0.00000000       0.00000000     118.37371826
2
Properties=species:S:1:pos:R:3:forces:R:3 energy=18.994019184614952 pbc="F F F"
Sm       0.00000000       0.00000000       0.00000000       0.00000000       0.00000000     -93.89602661
Sm       0.00000000       0.00000000       1.64969697       0.00000000       0.00000000      93.89602661
2
Properties=species:S:1:pos:R:3:forces:R:3 energy=14.159464612465252 pbc="F F F"
Sm       0.00000000       0.00000000       0.00000000       0.00000000       0.00000000     -71.13680267
Sm       0.00000000       0.00000000       1.70848485       0.00000000       0.00000000      71.13680267
2
Properties=species:S:1:pos:R:3:forces:R:3 energy=10.517490855621938 pbc="F F F"
Sm       0.00000000       0.00000000       0.00000000       0.00000000       0.00000000     -53.89417648
Sm       0.00000000       0.00000000       1.76727273       0.00000000       0.00000000      53.89417648
2
Properties=species:S:1:pos:R:3:forces:R:3 energy=7.707324604125775 pbc="F F F"
Sm       0.00000000       0.00000000       0.00000000       0.00000000       0.00000000     -42.45810699
Sm       0.00000000       0.00000000       1.82606061       0.00000000       0.00000000      42.45810699
2
Properties=species:S:1:pos:R:3:forces:R:3 energy=5.46241843150141 pbc="F F F"
Sm       0.00000000       0.00000000       0.00000000       0.00000000       0.00000000     -34.29314423
Sm       0.00000000       0.00000000       1.88484848       0.00000000       0.00000000      34.29314423
2
Properties=species:S:1:pos:R:3:forces:R:3 energy=3.6413534949153603 pbc="F F F"
Sm       0.00000000       0.00000000       0.00000000       0.00000000       0.00000000     -27.88809776
Sm       0.00000000       0.00000000       1.94363636       0.00000000       0.00000000      27.88809776
2
Properties=species:S:1:pos:R:3:forces:R:3 energy=2.1611251976866552 pbc="F F F"
Sm       0.00000000       0.00000000       0.00000000       0.00000000       0.00000000     -22.63029671
Sm       0.00000000       0.00000000       2.00242424       0.00000000       0.00000000      22.63029671
2
Properties=species:S:1:pos:R:3:forces:R:3 energy=0.9643360522041486 pbc="F F F"
Sm       0.00000000       0.00000000       0.00000000       0.00000000       0.00000000     -18.20546722
Sm       0.00000000       0.00000000       2.06121212       0.00000000       0.00000000      18.20546722
2
Properties=species:S:1:pos:R:3:forces:R:3 energy=0.008078931671058276 pbc="F F F"
Sm       0.00000000       0.00000000       0.00000000       0.00000000       0.00000000     -14.42198944
Sm       0.00000000       0.00000000       2.12000000       0.00000000       0.00000000      14.42198944
2
Properties=species:S:1:pos:R:3:forces:R:3 energy=-0.7414362834538444 pbc="F F F"
Sm       0.00000000       0.00000000       0.00000000       0.00000000       0.00000000     -11.15630245
Sm       0.00000000       0.00000000       2.17878788       0.00000000       0.00000000      11.15630245
2
Properties=species:S:1:pos:R:3:forces:R:3 energy=-1.3126614700405494 pbc="F F F"
Sm       0.00000000       0.00000000       0.00000000       0.00000000       0.00000000      -8.35356808
Sm       0.00000000       0.00000000       2.23757576       0.00000000       0.00000000       8.35356808
2
Properties=species:S:1:pos:R:3:forces:R:3 energy=-1.732812969196988 pbc="F F F"
Sm       0.00000000       0.00000000       0.00000000       0.00000000       0.00000000      -6.02046394
Sm       0.00000000       0.00000000       2.29636364       0.00000000       0.00000000       6.02046394
2
Properties=species:S:1:pos:R:3:forces:R:3 energy=-2.0300541511375525 pbc="F F F"
Sm       0.00000000       0.00000000       0.00000000       0.00000000       0.00000000      -4.17284775
Sm       0.00000000       0.00000000       2.35515152       0.00000000       0.00000000       4.17284775
2
Properties=species:S:1:pos:R:3:forces:R:3 energy=-2.232762554484803 pbc="F F F"
Sm       0.00000000       0.00000000       0.00000000       0.00000000       0.00000000      -2.79973984
Sm       0.00000000       0.00000000       2.41393939       0.00000000       0.00000000       2.79973984
2
Properties=species:S:1:pos:R:3:forces:R:3 energy=-2.3676374387978503 pbc="F F F"
Sm       0.00000000       0.00000000       0.00000000       0.00000000       0.00000000      -1.85395777
Sm       0.00000000       0.00000000       2.47272727       0.00000000       0.00000000       1.85395777
2
Properties=species:S:1:pos:R:3:forces:R:3 energy=-2.4574614856091714 pbc="F F F"
Sm       0.00000000       0.00000000       0.00000000       0.00000000       0.00000000      -1.25031161
Sm       0.00000000       0.00000000       2.53151515       0.00000000       0.00000000       1.25031161
2
Properties=species:S:1:pos:R:3:forces:R:3 energy=-2.5192947903592056 pbc="F F F"
Sm       0.00000000       0.00000000       0.00000000       0.00000000       0.00000000      -0.88457543
Sm       0.00000000       0.00000000       2.59030303       0.00000000       0.00000000       0.88457543
2
Properties=species:S:1:pos:R:3:forces:R:3 energy=-2.5643183204242868 pbc="F F F"
Sm       0.00000000       0.00000000       0.00000000       0.00000000       0.00000000      -0.66543138
Sm       0.00000000       0.00000000       2.64909091       0.00000000       0.00000000       0.66543138
2
Properties=species:S:1:pos:R:3:forces:R:3 energy=-2.599153452582185 pbc="F F F"
Sm       0.00000000       0.00000000       0.00000000       0.00000000       0.00000000      -0.52970821
Sm       0.00000000       0.00000000       2.70787879       0.00000000       0.00000000       0.52970821
2
Properties=species:S:1:pos:R:3:forces:R:3 energy=-2.6274315031890976 pbc="F F F"
Sm       0.00000000       0.00000000       0.00000000       0.00000000       0.00000000      -0.43684891
Sm       0.00000000       0.00000000       2.76666667       0.00000000       0.00000000       0.43684891
2
Properties=species:S:1:pos:R:3:forces:R:3 energy=-2.650795765789654 pbc="F F F"
Sm       0.00000000       0.00000000       0.00000000       0.00000000       0.00000000      -0.35844371
Sm       0.00000000       0.00000000       2.82545455       0.00000000       0.00000000       0.35844371
2
Properties=species:S:1:pos:R:3:forces:R:3 energy=-2.669430914404117 pbc="F F F"
Sm       0.00000000       0.00000000       0.00000000       0.00000000       0.00000000      -0.27287552
Sm       0.00000000       0.00000000       2.88424242       0.00000000       0.00000000       0.27287552
2
Properties=species:S:1:pos:R:3:forces:R:3 energy=-2.682441597224804 pbc="F F F"
Sm       0.00000000       0.00000000       0.00000000       0.00000000       0.00000000      -0.16529670
Sm       0.00000000       0.00000000       2.94303030       0.00000000       0.00000000       0.16529670
2
Properties=species:S:1:pos:R:3:forces:R:3 energy=-2.688304216816811 pbc="F F F"
Sm       0.00000000       0.00000000       0.00000000       0.00000000       0.00000000      -0.02937721
Sm       0.00000000       0.00000000       3.00181818       0.00000000       0.00000000       0.02937721
2
Properties=species:S:1:pos:R:3:forces:R:3 energy=-2.685392052206176 pbc="F F F"
Sm       0.00000000       0.00000000       0.00000000       0.00000000       0.00000000       0.13201983
Sm       0.00000000       0.00000000       3.06060606       0.00000000       0.00000000      -0.13201983
2
Properties=species:S:1:pos:R:3:forces:R:3 energy=-2.67248489643169 pbc="F F F"
Sm       0.00000000       0.00000000       0.00000000       0.00000000       0.00000000       0.30842996
Sm       0.00000000       0.00000000       3.11939394       0.00000000       0.00000000      -0.30842996
2
Properties=species:S:1:pos:R:3:forces:R:3 energy=-2.6491157701799684 pbc="F F F"
Sm       0.00000000       0.00000000       0.00000000       0.00000000       0.00000000       0.48546195
Sm       0.00000000       0.00000000       3.17818182       0.00000000       0.00000000      -0.48546195
2
Properties=species:S:1:pos:R:3:forces:R:3 energy=-2.6156685950392475 pbc="F F F"
Sm       0.00000000       0.00000000       0.00000000       0.00000000       0.00000000       0.64930141
Sm       0.00000000       0.00000000       3.23696970       0.00000000       0.00000000      -0.64930141
2
Properties=species:S:1:pos:R:3:forces:R:3 energy=-2.5732262851865357 pbc="F F F"
Sm       0.00000000       0.00000000       0.00000000       0.00000000       0.00000000       0.79024559
Sm       0.00000000       0.00000000       3.29575758       0.00000000       0.00000000      -0.79024559
2
Properties=species:S:1:pos:R:3:forces:R:3 energy=-2.523289563183831 pbc="F F F"
Sm       0.00000000       0.00000000       0.00000000       0.00000000       0.00000000       0.90405929
Sm       0.00000000       0.00000000       3.35454545       0.00000000       0.00000000      -0.90405929
2
Properties=species:S:1:pos:R:3:forces:R:3 energy=-2.467454090536864 pbc="F F F"
Sm       0.00000000       0.00000000       0.00000000       0.00000000       0.00000000       0.99126482
Sm       0.00000000       0.00000000       3.41333333       0.00000000       0.00000000      -0.99126482
2
Properties=species:S:1:pos:R:3:forces:R:3 energy=-2.407192479421972 pbc="F F F"
Sm       0.00000000       0.00000000       0.00000000       0.00000000       0.00000000       1.05538905
Sm       0.00000000       0.00000000       3.47212121       0.00000000       0.00000000      -1.05538905
2
Properties=species:S:1:pos:R:3:forces:R:3 energy=-2.343727063527975 pbc="F F F"
Sm       0.00000000       0.00000000       0.00000000       0.00000000       0.00000000       1.10111785
Sm       0.00000000       0.00000000       3.53090909       0.00000000       0.00000000      -1.10111785
2
Properties=species:S:1:pos:R:3:forces:R:3 energy=-2.278000887017256 pbc="F F F"
Sm       0.00000000       0.00000000       0.00000000       0.00000000       0.00000000       1.13288462
Sm       0.00000000       0.00000000       3.58969697       0.00000000       0.00000000      -1.13288462
2
Properties=species:S:1:pos:R:3:forces:R:3 energy=-2.2107335451584254 pbc="F F F"
Sm       0.00000000       0.00000000       0.00000000       0.00000000       0.00000000       1.15405643
Sm       0.00000000       0.00000000       3.64848485       0.00000000       0.00000000      -1.15405643
2
Properties=species:S:1:pos:R:3:forces:R:3 energy=-2.1424809640332323 pbc="F F F"
Sm       0.00000000       0.00000000       0.00000000       0.00000000       0.00000000       1.16662741
Sm       0.00000000       0.00000000       3.70727273       0.00000000       0.00000000      -1.16662741
2
Properties=species:S:1:pos:R:3:forces:R:3 energy=-2.0737189357382704 pbc="F F F"
Sm       0.00000000       0.00000000       0.00000000       0.00000000       0.00000000       1.17136335
Sm       0.00000000       0.00000000       3.76606061       0.00000000       0.00000000      -1.17136335
2
Properties=species:S:1:pos:R:3:forces:R:3 energy=-2.0049096244972597 pbc="F F F"
Sm       0.00000000       0.00000000       0.00000000       0.00000000       0.00000000       1.16826415
Sm       0.00000000       0.00000000       3.82484848       0.00000000       0.00000000      -1.16826415
2
Properties=species:S:1:pos:R:3:forces:R:3 energy=-1.9365163105990832 pbc="F F F"
Sm       0.00000000       0.00000000       0.00000000       0.00000000       0.00000000       1.15715194
Sm       0.00000000       0.00000000       3.88363636       0.00000000       0.00000000      -1.15715194
2
Properties=species:S:1:pos:R:3:forces:R:3 energy=-1.8690094649038638 pbc="F F F"
Sm       0.00000000       0.00000000       0.00000000       0.00000000       0.00000000       1.13823473
Sm       0.00000000       0.00000000       3.94242424       0.00000000       0.00000000      -1.13823473
2
Properties=species:S:1:pos:R:3:forces:R:3 energy=-1.8028256774909135 pbc="F F F"
Sm       0.00000000       0.00000000       0.00000000       0.00000000       0.00000000       1.11235476
Sm       0.00000000       0.00000000       4.00121212       0.00000000       0.00000000      -1.11235476
2
Properties=species:S:1:pos:R:3:forces:R:3 energy=-1.7383331376499203 pbc="F F F"
Sm       0.00000000       0.00000000       0.00000000       0.00000000       0.00000000       1.08092546
Sm       0.00000000       0.00000000       4.06000000       0.00000000       0.00000000      -1.08092546
2
Properties=species:S:1:pos:R:3:forces:R:3 energy=-1.6758111932395872 pbc="F F F"
Sm       0.00000000       0.00000000       0.00000000       0.00000000       0.00000000       1.04562867
Sm       0.00000000       0.00000000       4.11878788       0.00000000       0.00000000      -1.04562867
2
Properties=species:S:1:pos:R:3:forces:R:3 energy=-1.6154363220053312 pbc="F F F"
Sm       0.00000000       0.00000000       0.00000000       0.00000000       0.00000000       1.00806427
Sm       0.00000000       0.00000000       4.17757576       0.00000000       0.00000000      -1.00806427
2
Properties=species:S:1:pos:R:3:forces:R:3 energy=-1.5573047001488738 pbc="F F F"
Sm       0.00000000       0.00000000       0.00000000       0.00000000       0.00000000       0.96952778
Sm       0.00000000       0.00000000       4.23636364       0.00000000       0.00000000      -0.96952778
2
Properties=species:S:1:pos:R:3:forces:R:3 energy=-1.5014427866124354 pbc="F F F"
Sm       0.00000000       0.00000000       0.00000000       0.00000000       0.00000000       0.93094486
Sm       0.00000000       0.00000000       4.29515152       0.00000000       0.00000000      -0.93094486
2
Properties=species:S:1:pos:R:3:forces:R:3 energy=-1.4478371835898711 pbc="F F F"
Sm       0.00000000       0.00000000       0.00000000       0.00000000       0.00000000       0.89294297
Sm       0.00000000       0.00000000       4.35393939       0.00000000       0.00000000      -0.89294297
2
Properties=species:S:1:pos:R:3:forces:R:3 energy=-1.3964361228909945 pbc="F F F"
Sm       0.00000000       0.00000000       0.00000000       0.00000000       0.00000000       0.85594082
Sm       0.00000000       0.00000000       4.41272727       0.00000000       0.00000000      -0.85594082
2
Properties=species:S:1:pos:R:3:forces:R:3 energy=-1.3471728131233474 pbc="F F F"
Sm       0.00000000       0.00000000       0.00000000       0.00000000       0.00000000       0.82025987
Sm       0.00000000       0.00000000       4.47151515       0.00000000       0.00000000      -0.82025987
2
Properties=species:S:1:pos:R:3:forces:R:3 energy=-1.2999617822180896 pbc="F F F"
Sm       0.00000000       0.00000000       0.00000000       0.00000000       0.00000000       0.78616220
Sm       0.00000000       0.00000000       4.53030303       0.00000000       0.00000000      -0.78616220
2
Properties=species:S:1:pos:R:3:forces:R:3 energy=-1.2547044929378968 pbc="F F F"
Sm       0.00000000       0.00000000       0.00000000       0.00000000       0.00000000       0.75384474
Sm       0.00000000       0.00000000       4.58909091       0.00000000       0.00000000      -0.75384474
2
Properties=species:S:1:pos:R:3:forces:R:3 energy=-1.2112925005072395 pbc="F F F"
Sm       0.00000000       0.00000000       0.00000000       0.00000000       0.00000000       0.72339433
Sm       0.00000000       0.00000000       4.64787879       0.00000000       0.00000000      -0.72339433
2
Properties=species:S:1:pos:R:3:forces:R:3 energy=-1.16961516837003 pbc="F F F"
Sm       0.00000000       0.00000000       0.00000000       0.00000000       0.00000000       0.69474030
Sm       0.00000000       0.00000000       4.70666667       0.00000000       0.00000000      -0.69474030
2
Properties=species:S:1:pos:R:3:forces:R:3 energy=-1.1295767986493566 pbc="F F F"
Sm       0.00000000       0.00000000       0.00000000       0.00000000       0.00000000       0.66766500
Sm       0.00000000       0.00000000       4.76545455       0.00000000       0.00000000      -0.66766500
2
Properties=species:S:1:pos:R:3:forces:R:3 energy=-1.0910870447191645 pbc="F F F"
Sm       0.00000000       0.00000000       0.00000000       0.00000000       0.00000000       0.64189184
Sm       0.00000000       0.00000000       4.82424242       0.00000000       0.00000000      -0.64189184
2
Properties=species:S:1:pos:R:3:forces:R:3 energy=-1.0540839007581588 pbc="F F F"
Sm       0.00000000       0.00000000       0.00000000       0.00000000       0.00000000       0.61731708
Sm       0.00000000       0.00000000       4.88303030       0.00000000       0.00000000      -0.61731708
2
Properties=species:S:1:pos:R:3:forces:R:3 energy=-1.0184773462661165 pbc="F F F"
Sm       0.00000000       0.00000000       0.00000000       0.00000000       0.00000000       0.59426546
Sm       0.00000000       0.00000000       4.94181818       0.00000000       0.00000000      -0.59426546
2
Properties=species:S:1:pos:R:3:forces:R:3 energy=-0.9841627165112481 pbc="F F F"
Sm       0.00000000       0.00000000       0.00000000       0.00000000       0.00000000       0.57369715
Sm       0.00000000       0.00000000       5.00060606       0.00000000       0.00000000      -0.57369715
2
Properties=species:S:1:pos:R:3:forces:R:3 energy=-0.9509459974874686 pbc="F F F"
Sm       0.00000000       0.00000000       0.00000000       0.00000000       0.00000000       0.55705649
Sm       0.00000000       0.00000000       5.05939394       0.00000000       0.00000000      -0.55705649
2
Properties=species:S:1:pos:R:3:forces:R:3 energy=-0.9185635933136245 pbc="F F F"
Sm       0.00000000       0.00000000       0.00000000       0.00000000       0.00000000       0.54560238
Sm       0.00000000       0.00000000       5.11818182       0.00000000       0.00000000      -0.54560238
2
Properties=species:S:1:pos:R:3:forces:R:3 energy=-0.8866998448313665 pbc="F F F"
Sm       0.00000000       0.00000000       0.00000000       0.00000000       0.00000000       0.53907120
Sm       0.00000000       0.00000000       5.17696970       0.00000000       0.00000000      -0.53907120
2
Properties=species:S:1:pos:R:3:forces:R:3 energy=-0.8551538782610103 pbc="F F F"
Sm       0.00000000       0.00000000       0.00000000       0.00000000       0.00000000       0.53389263
Sm       0.00000000       0.00000000       5.23575758       0.00000000       0.00000000      -0.53389263
2
Properties=species:S:1:pos:R:3:forces:R:3 energy=-0.8240530039170144 pbc="F F F"
Sm       0.00000000       0.00000000       0.00000000       0.00000000       0.00000000       0.52230883
Sm       0.00000000       0.00000000       5.29454545       0.00000000       0.00000000      -0.52230883
2
Properties=species:S:1:pos:R:3:forces:R:3 energy=-0.794022241905165 pbc="F F F"
Sm       0.00000000       0.00000000       0.00000000       0.00000000       0.00000000       0.49692529
Sm       0.00000000       0.00000000       5.35333333       0.00000000       0.00000000      -0.49692529
2
Properties=species:S:1:pos:R:3:forces:R:3 energy=-0.7657664860591032 pbc="F F F"
Sm       0.00000000       0.00000000       0.00000000       0.00000000       0.00000000       0.46535975
Sm       0.00000000       0.00000000       5.41212121       0.00000000       0.00000000      -0.46535975
2
Properties=species:S:1:pos:R:3:forces:R:3 energy=-0.7389256193393738 pbc="F F F"
Sm       0.00000000       0.00000000       0.00000000       0.00000000       0.00000000       0.45200312
Sm       0.00000000       0.00000000       5.47090909       0.00000000       0.00000000      -0.45200312
2
Properties=species:S:1:pos:R:3:forces:R:3 energy=-0.7123836425281634 pbc="F F F"
Sm       0.00000000       0.00000000       0.00000000       0.00000000       0.00000000       0.44892862
Sm       0.00000000       0.00000000       5.52969697       0.00000000       0.00000000      -0.44892862
2
Properties=species:S:1:pos:R:3:forces:R:3 energy=-0.686756602612494 pbc="F F F"
Sm       0.00000000       0.00000000       0.00000000       0.00000000       0.00000000       0.41687936
Sm       0.00000000       0.00000000       5.58848485       0.00000000       0.00000000      -0.41687936
2
Properties=species:S:1:pos:R:3:forces:R:3 energy=-0.6638241979718955 pbc="F F F"
Sm       0.00000000       0.00000000       0.00000000       0.00000000       0.00000000       0.36367396
Sm       0.00000000       0.00000000       5.64727273       0.00000000       0.00000000      -0.36367396
2
Properties=species:S:1:pos:R:3:forces:R:3 energy=-0.6434532402888133 pbc="F F F"
Sm       0.00000000       0.00000000       0.00000000       0.00000000       0.00000000       0.33826244
Sm       0.00000000       0.00000000       5.70606061       0.00000000       0.00000000      -0.33826244
2
Properties=species:S:1:pos:R:3:forces:R:3 energy=-0.6228976069152117 pbc="F F F"
Sm       0.00000000       0.00000000       0.00000000       0.00000000       0.00000000       0.36448145
Sm       0.00000000       0.00000000       5.76484848       0.00000000       0.00000000      -0.36448145
2
Properties=species:S:1:pos:R:3:forces:R:3 energy=-0.6013152052306351 pbc="F F F"
Sm       0.00000000       0.00000000       0.00000000       0.00000000       0.00000000       0.35377571
Sm       0.00000000       0.00000000       5.82363636       0.00000000       0.00000000      -0.35377571
2
Properties=species:S:1:pos:R:3:forces:R:3 energy=-0.5835724826812684 pbc="F F F"
Sm       0.00000000       0.00000000       0.00000000       0.00000000       0.00000000       0.23779306
Sm       0.00000000       0.00000000       5.88242424       0.00000000       0.00000000      -0.23779306
2
Properties=species:S:1:pos:R:3:forces:R:3 energy=-0.5738264813986121 pbc="F F F"
Sm       0.00000000       0.00000000       0.00000000       0.00000000       0.00000000       0.09881055
Sm       0.00000000       0.00000000       5.94121212       0.00000000       0.00000000      -0.09881055
2
Properties=species:S:1:pos:R:3:forces:R:3 energy=-0.5702848101435936 pbc="F F F"
Sm       0.00000000       0.00000000       0.00000000       0.00000000       0.00000000       0.04060670
Sm       0.00000000       0.00000000       6.00000000       0.00000000       0.00000000      -0.04060670
