2
Properties=species:S:1:pos:R:3:forces:R:3 energy=9225.27888780333 pbc="F F F"
Te       0.00000000       0.00000000       0.00000000       0.00000000       0.00000000 -153080.21875000
Te       0.00000000       0.00000000       0.18000000       0.00000000       0.00000000  153080.21875000
2
Properties=species:S:1:pos:R:3:forces:R:3 energy=3808.92927842833 pbc="F F F"
Te       0.00000000       0.00000000       0.00000000       0.00000000       0.00000000  -52044.68750000
Te       0.00000000       0.00000000       0.23878788       0.00000000       0.00000000   52044.68750000
2
Properties=species:S:1:pos:R:3:forces:R:3 energy=1839.695635850205 pbc="F F F"
Te       0.00000000       0.00000000       0.00000000       0.00000000       0.00000000  -20317.15234375
Te       0.00000000       0.00000000       0.29757576       0.00000000       0.00000000   20317.15234375
2
Properties=species:S:1:pos:R:3:forces:R:3 energy=1053.644488395603 pbc="F F F"
Te       0.00000000       0.00000000       0.00000000       0.00000000       0.00000000   -8211.89941406
Te       0.00000000       0.00000000       0.35636364       0.00000000       0.00000000    8211.89941406
2
Properties=species:S:1:pos:R:3:forces:R:3 energy=727.4208555894388 pbc="F F F"
Te       0.00000000       0.00000000       0.00000000       0.00000000       0.00000000   -3476.36499023
Te       0.00000000       0.00000000       0.41515152       0.00000000       0.00000000    3476.36499023
2
Properties=species:S:1:pos:R:3:forces:R:3 energy=583.5058165459457 pbc="F F F"
Te       0.00000000       0.00000000       0.00000000       0.00000000       0.00000000   -1769.60546875
Te       0.00000000       0.00000000       0.47393939       0.00000000       0.00000000    1769.60546875
2
Properties=species:S:1:pos:R:3:forces:R:3 energy=486.9991332216789 pbc="F F F"
Te       0.00000000       0.00000000       0.00000000       0.00000000       0.00000000   -1454.74121094
Te       0.00000000       0.00000000       0.53272727       0.00000000       0.00000000    1454.74121094
2
Properties=species:S:1:pos:R:3:forces:R:3 energy=414.15855710682473 pbc="F F F"
Te       0.00000000       0.00000000       0.00000000       0.00000000       0.00000000    -992.35504150
Te       0.00000000       0.00000000       0.59151515       0.00000000       0.00000000     992.35504150
2
Properties=species:S:1:pos:R:3:forces:R:3 energy=368.3481323845006 pbc="F F F"
Te       0.00000000       0.00000000       0.00000000       0.00000000       0.00000000    -874.12908936
Te       0.00000000       0.00000000       0.65030303       0.00000000       0.00000000     874.12908936
2
Properties=species:S:1:pos:R:3:forces:R:3 energy=305.8627809613848 pbc="F F F"
Te       0.00000000       0.00000000       0.00000000       0.00000000       0.00000000   -1036.87963867
Te       0.00000000       0.00000000       0.70909091       0.00000000       0.00000000    1036.87963867
2
Properties=species:S:1:pos:R:3:forces:R:3 energy=262.2766910825704 pbc="F F F"
Te       0.00000000       0.00000000       0.00000000       0.00000000       0.00000000    -574.57495117
Te       0.00000000       0.00000000       0.76787879       0.00000000       0.00000000     574.57495117
2
Properties=species:S:1:pos:R:3:forces:R:3 energy=225.60542673824384 pbc="F F F"
Te       0.00000000       0.00000000       0.00000000       0.00000000       0.00000000    -634.56378174
Te       0.00000000       0.00000000       0.82666667       0.00000000       0.00000000     634.56378174
2
Properties=species:S:1:pos:R:3:forces:R:3 energy=192.00235405211828 pbc="F F F"
Te       0.00000000       0.00000000       0.00000000       0.00000000       0.00000000    -507.93212891
Te       0.00000000       0.00000000       0.88545455       0.00000000       0.00000000     507.93212891
2
Properties=species:S:1:pos:R:3:forces:R:3 energy=166.11169915226546 pbc="F F F"
Te       0.00000000       0.00000000       0.00000000       0.00000000       0.00000000    -374.80892944
Te       0.00000000       0.00000000       0.94424242       0.00000000       0.00000000     374.80892944
2
Properties=species:S:1:pos:R:3:forces:R:3 energy=146.97772783010524 pbc="F F F"
Te       0.00000000       0.00000000       0.00000000       0.00000000       0.00000000    -284.56686401
Te       0.00000000       0.00000000       1.00303030       0.00000000       0.00000000     284.56686401
2
Properties=species:S:1:pos:R:3:forces:R:3 energy=132.03114999419682 pbc="F F F"
Te       0.00000000       0.00000000       0.00000000       0.00000000       0.00000000    -227.14849854
Te       0.00000000       0.00000000       1.06181818       0.00000000       0.00000000     227.14849854
2
Properties=species:S:1:pos:R:3:forces:R:3 energy=119.9019477120291 pbc="F F F"
Te       0.00000000       0.00000000       0.00000000       0.00000000       0.00000000    -190.28190613
Te       0.00000000       0.00000000       1.12060606       0.00000000       0.00000000     190.28190613
2
Properties=species:S:1:pos:R:3:forces:R:3 energy=108.8861110720389 pbc="F F F"
Te       0.00000000       0.00000000       0.00000000       0.00000000       0.00000000    -191.42857361
Te       0.00000000       0.00000000       1.17939394       0.00000000       0.00000000     191.42857361
2
Properties=species:S:1:pos:R:3:forces:R:3 energy=96.82484959988889 pbc="F F F"
Te       0.00000000       0.00000000       0.00000000       0.00000000       0.00000000    -220.11367798
Te       0.00000000       0.00000000       1.23818182       0.00000000       0.00000000     220.11367798
2
Properties=species:S:1:pos:R:3:forces:R:3 energy=83.34430783780734 pbc="F F F"
Te       0.00000000       0.00000000       0.00000000       0.00000000       0.00000000    -233.17300415
Te       0.00000000       0.00000000       1.29696970       0.00000000       0.00000000     233.17300415
2
Properties=species:S:1:pos:R:3:forces:R:3 energy=69.97466781944746 pbc="F F F"
Te       0.00000000       0.00000000       0.00000000       0.00000000       0.00000000    -218.38041687
Te       0.00000000       0.00000000       1.35575758       0.00000000       0.00000000     218.38041687
2
Properties=species:S:1:pos:R:3:forces:R:3 energy=57.816279164315965 pbc="F F F"
Te       0.00000000       0.00000000       0.00000000       0.00000000       0.00000000    -195.68075562
Te       0.00000000       0.00000000       1.41454545       0.00000000       0.00000000     195.68075562
2
Properties=species:S:1:pos:R:3:forces:R:3 energy=46.93032218673174 pbc="F F F"
Te       0.00000000       0.00000000       0.00000000       0.00000000       0.00000000    -174.39910889
Te       0.00000000       0.00000000       1.47333333       0.00000000       0.00000000     174.39910889
2
Properties=species:S:1:pos:R:3:forces:R:3 energy=37.31968103541426 pbc="F F F"
Te       0.00000000       0.00000000       0.00000000       0.00000000       0.00000000    -152.72627258
Te       0.00000000       0.00000000       1.53212121       0.00000000       0.00000000     152.72627258
2
Properties=species:S:1:pos:R:3:forces:R:3 energy=28.977083275130596 pbc="F F F"
Te       0.00000000       0.00000000       0.00000000       0.00000000       0.00000000    -130.86930847
Te       0.00000000       0.00000000       1.59090909       0.00000000       0.00000000     130.86930847
2
Properties=species:S:1:pos:R:3:forces:R:3 energy=21.94944613681556 pbc="F F F"
Te       0.00000000       0.00000000       0.00000000       0.00000000       0.00000000    -108.27876282
Te       0.00000000       0.00000000       1.64969697       0.00000000       0.00000000     108.27876282
2
Properties=species:S:1:pos:R:3:forces:R:3 energy=16.21245331742621 pbc="F F F"
Te       0.00000000       0.00000000       0.00000000       0.00000000       0.00000000     -87.35646057
Te       0.00000000       0.00000000       1.70848485       0.00000000       0.00000000      87.35646057
2
Properties=species:S:1:pos:R:3:forces:R:3 energy=11.614508056881531 pbc="F F F"
Te       0.00000000       0.00000000       0.00000000       0.00000000       0.00000000     -69.64561462
Te       0.00000000       0.00000000       1.76727273       0.00000000       0.00000000      69.64561462
2
Properties=species:S:1:pos:R:3:forces:R:3 energy=7.958316591957531 pbc="F F F"
Te       0.00000000       0.00000000       0.00000000       0.00000000       0.00000000     -55.25817871
Te       0.00000000       0.00000000       1.82606061       0.00000000       0.00000000      55.25817871
2
Properties=species:S:1:pos:R:3:forces:R:3 energy=5.062083437955556 pbc="F F F"
Te       0.00000000       0.00000000       0.00000000       0.00000000       0.00000000     -43.69892502
Te       0.00000000       0.00000000       1.88484848       0.00000000       0.00000000      43.69892502
2
Properties=species:S:1:pos:R:3:forces:R:3 energy=2.775339811267335 pbc="F F F"
Te       0.00000000       0.00000000       0.00000000       0.00000000       0.00000000     -34.44163132
Te       0.00000000       0.00000000       1.94363636       0.00000000       0.00000000      34.44163132
2
Properties=species:S:1:pos:R:3:forces:R:3 energy=0.9763003851267406 pbc="F F F"
Te       0.00000000       0.00000000       0.00000000       0.00000000       0.00000000     -27.03792572
Te       0.00000000       0.00000000       2.00242424       0.00000000       0.00000000      27.03792572
2
Properties=species:S:1:pos:R:3:forces:R:3 energy=-0.432402899336799 pbc="F F F"
Te       0.00000000       0.00000000       0.00000000       0.00000000       0.00000000     -21.10291481
Te       0.00000000       0.00000000       2.06121212       0.00000000       0.00000000      21.10291481
2
Properties=species:S:1:pos:R:3:forces:R:3 energy=-1.527396208630477 pbc="F F F"
Te       0.00000000       0.00000000       0.00000000       0.00000000       0.00000000     -16.31910706
Te       0.00000000       0.00000000       2.12000000       0.00000000       0.00000000      16.31910706
2
Properties=species:S:1:pos:R:3:forces:R:3 energy=-2.368867019497187 pbc="F F F"
Te       0.00000000       0.00000000       0.00000000       0.00000000       0.00000000     -12.44302750
Te       0.00000000       0.00000000       2.17878788       0.00000000       0.00000000      12.44302750
2
Properties=species:S:1:pos:R:3:forces:R:3 energy=-3.0047034259083816 pbc="F F F"
Te       0.00000000       0.00000000       0.00000000       0.00000000       0.00000000      -9.29842186
Te       0.00000000       0.00000000       2.23757576       0.00000000       0.00000000       9.29842186
2
Properties=species:S:1:pos:R:3:forces:R:3 energy=-3.4738915053658417 pbc="F F F"
Te       0.00000000       0.00000000       0.00000000       0.00000000       0.00000000      -6.75421143
Te       0.00000000       0.00000000       2.29636364       0.00000000       0.00000000       6.75421143
2
Properties=species:S:1:pos:R:3:forces:R:3 energy=-3.8084694199986915 pbc="F F F"
Te       0.00000000       0.00000000       0.00000000       0.00000000       0.00000000      -4.70201349
Te       0.00000000       0.00000000       2.35515152       0.00000000       0.00000000       4.70201349
2
Properties=species:S:1:pos:R:3:forces:R:3 energy=-4.034471426927868 pbc="F F F"
Te       0.00000000       0.00000000       0.00000000       0.00000000       0.00000000      -3.04508543
Te       0.00000000       0.00000000       2.41393939       0.00000000       0.00000000       3.04508543
2
Properties=species:S:1:pos:R:3:forces:R:3 energy=-4.172573301198342 pbc="F F F"
Te       0.00000000       0.00000000       0.00000000       0.00000000       0.00000000      -1.69873738
Te       0.00000000       0.00000000       2.47272727       0.00000000       0.00000000       1.69873738
2
Properties=species:S:1:pos:R:3:forces:R:3 energy=-4.238929874073006 pbc="F F F"
Te       0.00000000       0.00000000       0.00000000       0.00000000       0.00000000      -0.59428757
Te       0.00000000       0.00000000       2.53151515       0.00000000       0.00000000       0.59428757
2
Properties=species:S:1:pos:R:3:forces:R:3 energy=-4.246194030871932 pbc="F F F"
Te       0.00000000       0.00000000       0.00000000       0.00000000       0.00000000       0.31839165
Te       0.00000000       0.00000000       2.59030303       0.00000000       0.00000000      -0.31839165
2
Properties=species:S:1:pos:R:3:forces:R:3 energy=-4.204619931590592 pbc="F F F"
Te       0.00000000       0.00000000       0.00000000       0.00000000       0.00000000       1.07101703
Te       0.00000000       0.00000000       2.64909091       0.00000000       0.00000000      -1.07101703
2
Properties=species:S:1:pos:R:3:forces:R:3 energy=-4.123098601341152 pbc="F F F"
Te       0.00000000       0.00000000       0.00000000       0.00000000       0.00000000       1.67879009
Te       0.00000000       0.00000000       2.70787879       0.00000000       0.00000000      -1.67879009
2
Properties=species:S:1:pos:R:3:forces:R:3 energy=-4.010007226512397 pbc="F F F"
Te       0.00000000       0.00000000       0.00000000       0.00000000       0.00000000       2.14492512
Te       0.00000000       0.00000000       2.76666667       0.00000000       0.00000000      -2.14492512
2
Properties=species:S:1:pos:R:3:forces:R:3 energy=-3.8737089909853117 pbc="F F F"
Te       0.00000000       0.00000000       0.00000000       0.00000000       0.00000000       2.46827722
Te       0.00000000       0.00000000       2.82545455       0.00000000       0.00000000      -2.46827722
2
Properties=species:S:1:pos:R:3:forces:R:3 energy=-3.7225250282719333 pbc="F F F"
Te       0.00000000       0.00000000       0.00000000       0.00000000       0.00000000       2.65288663
Te       0.00000000       0.00000000       2.88424242       0.00000000       0.00000000      -2.65288663
2
Properties=species:S:1:pos:R:3:forces:R:3 energy=-3.5642000011026114 pbc="F F F"
Te       0.00000000       0.00000000       0.00000000       0.00000000       0.00000000       2.71517086
Te       0.00000000       0.00000000       2.94303030       0.00000000       0.00000000      -2.71517086
2
Properties=species:S:1:pos:R:3:forces:R:3 energy=-3.4051131656762093 pbc="F F F"
Te       0.00000000       0.00000000       0.00000000       0.00000000       0.00000000       2.68447971
Te       0.00000000       0.00000000       3.00181818       0.00000000       0.00000000      -2.68447971
2
Properties=species:S:1:pos:R:3:forces:R:3 energy=-3.249693297138797 pbc="F F F"
Te       0.00000000       0.00000000       0.00000000       0.00000000       0.00000000       2.59626412
Te       0.00000000       0.00000000       3.06060606       0.00000000       0.00000000      -2.59626412
2
Properties=species:S:1:pos:R:3:forces:R:3 energy=-3.100358407697005 pbc="F F F"
Te       0.00000000       0.00000000       0.00000000       0.00000000       0.00000000       2.48198700
Te       0.00000000       0.00000000       3.11939394       0.00000000       0.00000000      -2.48198700
2
Properties=species:S:1:pos:R:3:forces:R:3 energy=-2.957981995988178 pbc="F F F"
Te       0.00000000       0.00000000       0.00000000       0.00000000       0.00000000       2.36167765
Te       0.00000000       0.00000000       3.17818182       0.00000000       0.00000000      -2.36167765
2
Properties=species:S:1:pos:R:3:forces:R:3 energy=-2.8226515429436128 pbc="F F F"
Te       0.00000000       0.00000000       0.00000000       0.00000000       0.00000000       2.24264979
Te       0.00000000       0.00000000       3.23696970       0.00000000       0.00000000      -2.24264979
2
Properties=species:S:1:pos:R:3:forces:R:3 energy=-2.6943001769671957 pbc="F F F"
Te       0.00000000       0.00000000       0.00000000       0.00000000       0.00000000       2.12356496
Te       0.00000000       0.00000000       3.29575758       0.00000000       0.00000000      -2.12356496
2
Properties=species:S:1:pos:R:3:forces:R:3 energy=-2.57305313881651 pbc="F F F"
Te       0.00000000       0.00000000       0.00000000       0.00000000       0.00000000       2.00037503
Te       0.00000000       0.00000000       3.35454545       0.00000000       0.00000000      -2.00037503
2
Properties=species:S:1:pos:R:3:forces:R:3 energy=-2.4592341268777798 pbc="F F F"
Te       0.00000000       0.00000000       0.00000000       0.00000000       0.00000000       1.87070203
Te       0.00000000       0.00000000       3.41333333       0.00000000       0.00000000      -1.87070203
2
Properties=species:S:1:pos:R:3:forces:R:3 energy=-2.353217781757753 pbc="F F F"
Te       0.00000000       0.00000000       0.00000000       0.00000000       0.00000000       1.73529124
Te       0.00000000       0.00000000       3.47212121       0.00000000       0.00000000      -1.73529124
2
Properties=species:S:1:pos:R:3:forces:R:3 energy=-2.255259936255122 pbc="F F F"
Te       0.00000000       0.00000000       0.00000000       0.00000000       0.00000000       1.59717655
Te       0.00000000       0.00000000       3.53090909       0.00000000       0.00000000      -1.59717655
2
Properties=species:S:1:pos:R:3:forces:R:3 energy=-2.165408997340925 pbc="F F F"
Te       0.00000000       0.00000000       0.00000000       0.00000000       0.00000000       1.46002233
Te       0.00000000       0.00000000       3.58969697       0.00000000       0.00000000      -1.46002233
2
Properties=species:S:1:pos:R:3:forces:R:3 energy=-2.0835164342401216 pbc="F F F"
Te       0.00000000       0.00000000       0.00000000       0.00000000       0.00000000       1.32690990
Te       0.00000000       0.00000000       3.64848485       0.00000000       0.00000000      -1.32690990
2
Properties=species:S:1:pos:R:3:forces:R:3 energy=-2.009278553536043 pbc="F F F"
Te       0.00000000       0.00000000       0.00000000       0.00000000       0.00000000       1.19984007
Te       0.00000000       0.00000000       3.70727273       0.00000000       0.00000000      -1.19984007
2
Properties=species:S:1:pos:R:3:forces:R:3 energy=-1.9423041055087256 pbc="F F F"
Te       0.00000000       0.00000000       0.00000000       0.00000000       0.00000000       1.07987487
Te       0.00000000       0.00000000       3.76606061       0.00000000       0.00000000      -1.07987487
2
Properties=species:S:1:pos:R:3:forces:R:3 energy=-1.8821625028766393 pbc="F F F"
Te       0.00000000       0.00000000       0.00000000       0.00000000       0.00000000       0.96749312
Te       0.00000000       0.00000000       3.82484848       0.00000000       0.00000000      -0.96749312
2
Properties=species:S:1:pos:R:3:forces:R:3 energy=-1.8283980542194784 pbc="F F F"
Te       0.00000000       0.00000000       0.00000000       0.00000000       0.00000000       0.86290115
Te       0.00000000       0.00000000       3.88363636       0.00000000       0.00000000      -0.86290115
2
Properties=species:S:1:pos:R:3:forces:R:3 energy=-1.7805499848031598 pbc="F F F"
Te       0.00000000       0.00000000       0.00000000       0.00000000       0.00000000       0.76625431
Te       0.00000000       0.00000000       3.94242424       0.00000000       0.00000000      -0.76625431
2
Properties=species:S:1:pos:R:3:forces:R:3 energy=-1.7381469973020145 pbc="F F F"
Te       0.00000000       0.00000000       0.00000000       0.00000000       0.00000000       0.67770755
Te       0.00000000       0.00000000       4.00121212       0.00000000       0.00000000      -0.67770755
2
Properties=species:S:1:pos:R:3:forces:R:3 energy=-1.7007063961520734 pbc="F F F"
Te       0.00000000       0.00000000       0.00000000       0.00000000       0.00000000       0.59741563
Te       0.00000000       0.00000000       4.06000000       0.00000000       0.00000000      -0.59741563
2
Properties=species:S:1:pos:R:3:forces:R:3 energy=-1.6677408856483926 pbc="F F F"
Te       0.00000000       0.00000000       0.00000000       0.00000000       0.00000000       0.52550489
Te       0.00000000       0.00000000       4.11878788       0.00000000       0.00000000      -0.52550489
2
Properties=species:S:1:pos:R:3:forces:R:3 energy=-1.6387550495192145 pbc="F F F"
Te       0.00000000       0.00000000       0.00000000       0.00000000       0.00000000       0.46200335
Te       0.00000000       0.00000000       4.17757576       0.00000000       0.00000000      -0.46200335
2
Properties=species:S:1:pos:R:3:forces:R:3 energy=-1.6132568825488323 pbc="F F F"
Te       0.00000000       0.00000000       0.00000000       0.00000000       0.00000000       0.40682214
Te       0.00000000       0.00000000       4.23636364       0.00000000       0.00000000      -0.40682214
2
Properties=species:S:1:pos:R:3:forces:R:3 energy=-1.5907640041318056 pbc="F F F"
Te       0.00000000       0.00000000       0.00000000       0.00000000       0.00000000       0.35970378
Te       0.00000000       0.00000000       4.29515152       0.00000000       0.00000000      -0.35970378
2
Properties=species:S:1:pos:R:3:forces:R:3 energy=-1.5708150485117804 pbc="F F F"
Te       0.00000000       0.00000000       0.00000000       0.00000000       0.00000000       0.32021627
Te       0.00000000       0.00000000       4.35393939       0.00000000       0.00000000      -0.32021627
2
Properties=species:S:1:pos:R:3:forces:R:3 energy=-1.5529774934127816 pbc="F F F"
Te       0.00000000       0.00000000       0.00000000       0.00000000       0.00000000       0.28773087
Te       0.00000000       0.00000000       4.41272727       0.00000000       0.00000000      -0.28773087
2
Properties=species:S:1:pos:R:3:forces:R:3 energy=-1.536863072883609 pbc="F F F"
Te       0.00000000       0.00000000       0.00000000       0.00000000       0.00000000       0.26144078
Te       0.00000000       0.00000000       4.47151515       0.00000000       0.00000000      -0.26144078
2
Properties=species:S:1:pos:R:3:forces:R:3 energy=-1.5221353378321991 pbc="F F F"
Te       0.00000000       0.00000000       0.00000000       0.00000000       0.00000000       0.24038742
Te       0.00000000       0.00000000       4.53030303       0.00000000       0.00000000      -0.24038742
2
Properties=species:S:1:pos:R:3:forces:R:3 energy=-1.508517888970201 pbc="F F F"
Te       0.00000000       0.00000000       0.00000000       0.00000000       0.00000000       0.22350183
Te       0.00000000       0.00000000       4.58909091       0.00000000       0.00000000      -0.22350183
2
Properties=species:S:1:pos:R:3:forces:R:3 energy=-1.4957973737162424 pbc="F F F"
Te       0.00000000       0.00000000       0.00000000       0.00000000       0.00000000       0.20968714
Te       0.00000000       0.00000000       4.64787879       0.00000000       0.00000000      -0.20968714
2
Properties=species:S:1:pos:R:3:forces:R:3 energy=-1.4838238870053582 pbc="F F F"
Te       0.00000000       0.00000000       0.00000000       0.00000000       0.00000000       0.19789830
Te       0.00000000       0.00000000       4.70666667       0.00000000       0.00000000      -0.19789830
2
Properties=species:S:1:pos:R:3:forces:R:3 energy=-1.4725068896627451 pbc="F F F"
Te       0.00000000       0.00000000       0.00000000       0.00000000       0.00000000       0.18725942
Te       0.00000000       0.00000000       4.76545455       0.00000000       0.00000000      -0.18725942
2
Properties=species:S:1:pos:R:3:forces:R:3 energy=-1.4617958584849893 pbc="F F F"
Te       0.00000000       0.00000000       0.00000000       0.00000000       0.00000000       0.17716821
Te       0.00000000       0.00000000       4.82424242       0.00000000       0.00000000      -0.17716821
2
Properties=species:S:1:pos:R:3:forces:R:3 energy=-1.451670584354191 pbc="F F F"
Te       0.00000000       0.00000000       0.00000000       0.00000000       0.00000000       0.16740350
Te       0.00000000       0.00000000       4.88303030       0.00000000       0.00000000      -0.16740350
2
Properties=species:S:1:pos:R:3:forces:R:3 energy=-1.4421036755806922 pbc="F F F"
Te       0.00000000       0.00000000       0.00000000       0.00000000       0.00000000       0.15817124
Te       0.00000000       0.00000000       4.94181818       0.00000000       0.00000000      -0.15817124
2
Properties=species:S:1:pos:R:3:forces:R:3 energy=-1.433049976786706 pbc="F F F"
Te       0.00000000       0.00000000       0.00000000       0.00000000       0.00000000       0.15012051
Te       0.00000000       0.00000000       5.00060606       0.00000000       0.00000000      -0.15012051
2
Properties=species:S:1:pos:R:3:forces:R:3 energy=-1.424410848885049 pbc="F F F"
Te       0.00000000       0.00000000       0.00000000       0.00000000       0.00000000       0.14420886
Te       0.00000000       0.00000000       5.05939394       0.00000000       0.00000000      -0.14420886
2
Properties=species:S:1:pos:R:3:forces:R:3 energy=-1.4160335001727868 pbc="F F F"
Te       0.00000000       0.00000000       0.00000000       0.00000000       0.00000000       0.14139615
Te       0.00000000       0.00000000       5.11818182       0.00000000       0.00000000      -0.14139615
2
Properties=species:S:1:pos:R:3:forces:R:3 energy=-1.4077162279561901 pbc="F F F"
Te       0.00000000       0.00000000       0.00000000       0.00000000       0.00000000       0.14214058
Te       0.00000000       0.00000000       5.17696970       0.00000000       0.00000000      -0.14214058
2
Properties=species:S:1:pos:R:3:forces:R:3 energy=-1.3992638397830002 pbc="F F F"
Te       0.00000000       0.00000000       0.00000000       0.00000000       0.00000000       0.14577928
Te       0.00000000       0.00000000       5.23575758       0.00000000       0.00000000      -0.14577928
2
Properties=species:S:1:pos:R:3:forces:R:3 energy=-1.3905615774571496 pbc="F F F"
Te       0.00000000       0.00000000       0.00000000       0.00000000       0.00000000       0.15012980
Te       0.00000000       0.00000000       5.29454545       0.00000000       0.00000000      -0.15012980
2
Properties=species:S:1:pos:R:3:forces:R:3 energy=-1.3816605738443004 pbc="F F F"
Te       0.00000000       0.00000000       0.00000000       0.00000000       0.00000000       0.15201469
Te       0.00000000       0.00000000       5.35333333       0.00000000       0.00000000      -0.15201469
2
Properties=species:S:1:pos:R:3:forces:R:3 energy=-1.3727785570402034 pbc="F F F"
Te       0.00000000       0.00000000       0.00000000       0.00000000       0.00000000       0.14945979
Te       0.00000000       0.00000000       5.41212121       0.00000000       0.00000000      -0.14945979
2
Properties=species:S:1:pos:R:3:forces:R:3 energy=-1.3641437329267643 pbc="F F F"
Te       0.00000000       0.00000000       0.00000000       0.00000000       0.00000000       0.14405535
Te       0.00000000       0.00000000       5.47090909       0.00000000       0.00000000      -0.14405535
2
Properties=species:S:1:pos:R:3:forces:R:3 energy=-1.3558648969396314 pbc="F F F"
Te       0.00000000       0.00000000       0.00000000       0.00000000       0.00000000       0.13710642
Te       0.00000000       0.00000000       5.52969697       0.00000000       0.00000000      -0.13710642
2
Properties=species:S:1:pos:R:3:forces:R:3 energy=-1.3481216204023614 pbc="F F F"
Te       0.00000000       0.00000000       0.00000000       0.00000000       0.00000000       0.12529276
Te       0.00000000       0.00000000       5.58848485       0.00000000       0.00000000      -0.12529276
2
Properties=species:S:1:pos:R:3:forces:R:3 energy=-1.3412521117325962 pbc="F F F"
Te       0.00000000       0.00000000       0.00000000       0.00000000       0.00000000       0.10779877
Te       0.00000000       0.00000000       5.64727273       0.00000000       0.00000000      -0.10779877
2
Properties=species:S:1:pos:R:3:forces:R:3 energy=-1.3354865904028035 pbc="F F F"
Te       0.00000000       0.00000000       0.00000000       0.00000000       0.00000000       0.08854391
Te       0.00000000       0.00000000       5.70606061       0.00000000       0.00000000      -0.08854391
2
Properties=species:S:1:pos:R:3:forces:R:3 energy=-1.3307515840926556 pbc="F F F"
Te       0.00000000       0.00000000       0.00000000       0.00000000       0.00000000       0.07286883
Te       0.00000000       0.00000000       5.76484848       0.00000000       0.00000000      -0.07286883
2
Properties=species:S:1:pos:R:3:forces:R:3 energy=-1.3269358957013946 pbc="F F F"
Te       0.00000000       0.00000000       0.00000000       0.00000000       0.00000000       0.05603735
Te       0.00000000       0.00000000       5.82363636       0.00000000       0.00000000      -0.05603735
2
Properties=species:S:1:pos:R:3:forces:R:3 energy=-1.324291040022722 pbc="F F F"
Te       0.00000000       0.00000000       0.00000000       0.00000000       0.00000000       0.03383651
Te       0.00000000       0.00000000       5.88242424       0.00000000       0.00000000      -0.03383651
2
Properties=species:S:1:pos:R:3:forces:R:3 energy=-1.3228960368003149 pbc="F F F"
Te       0.00000000       0.00000000       0.00000000       0.00000000       0.00000000       0.01481719
Te       0.00000000       0.00000000       5.94121212       0.00000000       0.00000000      -0.01481719
2
Properties=species:S:1:pos:R:3:forces:R:3 energy=-1.3223168171162913 pbc="F F F"
Te       0.00000000       0.00000000       0.00000000       0.00000000       0.00000000       0.00726031
Te       0.00000000       0.00000000       6.00000000       0.00000000       0.00000000      -0.00726031
