2
Properties=species:S:1:pos:R:3:forces:R:3 energy=20051.544042949197 pbc="F F F"
Y        0.00000000       0.00000000       0.00000000       0.00000000       0.00000000 -100251.29687500
Y        0.00000000       0.00000000       0.18000000       0.00000000       0.00000000  100251.29687500
2
Properties=species:S:1:pos:R:3:forces:R:3 energy=16362.1495116992 pbc="F F F"
Y        0.00000000       0.00000000       0.00000000       0.00000000       0.00000000  -38570.71093750
Y        0.00000000       0.00000000       0.23878788       0.00000000       0.00000000   38570.71093750
2
Properties=species:S:1:pos:R:3:forces:R:3 energy=14677.7393554492 pbc="F F F"
Y        0.00000000       0.00000000       0.00000000       0.00000000       0.00000000  -22536.34375000
Y        0.00000000       0.00000000       0.29757576       0.00000000       0.00000000   22536.34375000
2
Properties=species:S:1:pos:R:3:forces:R:3 energy=13430.89365233687 pbc="F F F"
Y        0.00000000       0.00000000       0.00000000       0.00000000       0.00000000  -21420.74414062
Y        0.00000000       0.00000000       0.35636364       0.00000000       0.00000000   21420.74414062
2
Properties=species:S:1:pos:R:3:forces:R:3 energy=12016.81064452437 pbc="F F F"
Y        0.00000000       0.00000000       0.00000000       0.00000000       0.00000000  -29108.96484375
Y        0.00000000       0.00000000       0.41515152       0.00000000       0.00000000   29108.96484375
2
Properties=species:S:1:pos:R:3:forces:R:3 energy=10052.68564452437 pbc="F F F"
Y        0.00000000       0.00000000       0.00000000       0.00000000       0.00000000  -37826.63671875
Y        0.00000000       0.00000000       0.47393939       0.00000000       0.00000000   37826.63671875
2
Properties=species:S:1:pos:R:3:forces:R:3 energy=7597.950292980877 pbc="F F F"
Y        0.00000000       0.00000000       0.00000000       0.00000000       0.00000000  -45080.25000000
Y        0.00000000       0.00000000       0.53272727       0.00000000       0.00000000   45080.25000000
2
Properties=species:S:1:pos:R:3:forces:R:3 energy=4851.825293006219 pbc="F F F"
Y        0.00000000       0.00000000       0.00000000       0.00000000       0.00000000  -48064.37890625
Y        0.00000000       0.00000000       0.59151515       0.00000000       0.00000000   48064.37890625
2
Properties=species:S:1:pos:R:3:forces:R:3 energy=2190.8421387536937 pbc="F F F"
Y        0.00000000       0.00000000       0.00000000       0.00000000       0.00000000  -40990.06250000
Y        0.00000000       0.00000000       0.65030303       0.00000000       0.00000000   40990.06250000
2
Properties=species:S:1:pos:R:3:forces:R:3 energy=178.9742188951753 pbc="F F F"
Y        0.00000000       0.00000000       0.00000000       0.00000000       0.00000000  -26007.70312500
Y        0.00000000       0.00000000       0.70909091       0.00000000       0.00000000   26007.70312500
2
Properties=species:S:1:pos:R:3:forces:R:3 energy=-817.9709104043212 pbc="F F F"
Y        0.00000000       0.00000000       0.00000000       0.00000000       0.00000000   -6736.64160156
Y        0.00000000       0.00000000       0.76787879       0.00000000       0.00000000    6736.64160156
2
Properties=species:S:1:pos:R:3:forces:R:3 energy=-575.7516109421952 pbc="F F F"
Y        0.00000000       0.00000000       0.00000000       0.00000000       0.00000000    4290.76074219
Y        0.00000000       0.00000000       0.82666667       0.00000000       0.00000000   -4290.76074219
2
Properties=species:S:1:pos:R:3:forces:R:3 energy=-345.38378237031395 pbc="F F F"
Y        0.00000000       0.00000000       0.00000000       0.00000000       0.00000000    2447.67187500
Y        0.00000000       0.00000000       0.88545455       0.00000000       0.00000000   -2447.67187500
2
Properties=species:S:1:pos:R:3:forces:R:3 energy=-256.0950247546556 pbc="F F F"
Y        0.00000000       0.00000000       0.00000000       0.00000000       0.00000000    1586.20812988
Y        0.00000000       0.00000000       0.94424242       0.00000000       0.00000000   -1586.20812988
2
Properties=species:S:1:pos:R:3:forces:R:3 energy=-174.3812792383225 pbc="F F F"
Y        0.00000000       0.00000000       0.00000000       0.00000000       0.00000000    1516.81982422
Y        0.00000000       0.00000000       1.00303030       0.00000000       0.00000000   -1516.81982422
2
Properties=species:S:1:pos:R:3:forces:R:3 energy=-86.53504914657006 pbc="F F F"
Y        0.00000000       0.00000000       0.00000000       0.00000000       0.00000000    1329.80383301
Y        0.00000000       0.00000000       1.06181818       0.00000000       0.00000000   -1329.80383301
2
Properties=species:S:1:pos:R:3:forces:R:3 energy=-34.77731604562047 pbc="F F F"
Y        0.00000000       0.00000000       0.00000000       0.00000000       0.00000000     536.92889404
Y        0.00000000       0.00000000       1.12060606       0.00000000       0.00000000    -536.92889404
2
Properties=species:S:1:pos:R:3:forces:R:3 energy=-9.13750169745967 pbc="F F F"
Y        0.00000000       0.00000000       0.00000000       0.00000000       0.00000000     343.67205811
Y        0.00000000       0.00000000       1.17939394       0.00000000       0.00000000    -343.67205811
2
Properties=species:S:1:pos:R:3:forces:R:3 energy=6.309337885218996 pbc="F F F"
Y        0.00000000       0.00000000       0.00000000       0.00000000       0.00000000     187.69070435
Y        0.00000000       0.00000000       1.23818182       0.00000000       0.00000000    -187.69070435
2
Properties=species:S:1:pos:R:3:forces:R:3 energy=13.495844748804192 pbc="F F F"
Y        0.00000000       0.00000000       0.00000000       0.00000000       0.00000000      75.64134216
Y        0.00000000       0.00000000       1.29696970       0.00000000       0.00000000     -75.64134216
2
Properties=species:S:1:pos:R:3:forces:R:3 energy=17.04533857617121 pbc="F F F"
Y        0.00000000       0.00000000       0.00000000       0.00000000       0.00000000      53.43011475
Y        0.00000000       0.00000000       1.35575758       0.00000000       0.00000000     -53.43011475
2
Properties=species:S:1:pos:R:3:forces:R:3 energy=19.88980437011858 pbc="F F F"
Y        0.00000000       0.00000000       0.00000000       0.00000000       0.00000000      39.59067535
Y        0.00000000       0.00000000       1.41454545       0.00000000       0.00000000     -39.59067535
2
Properties=species:S:1:pos:R:3:forces:R:3 energy=21.180985154525988 pbc="F F F"
Y        0.00000000       0.00000000       0.00000000       0.00000000       0.00000000       1.17152202
Y        0.00000000       0.00000000       1.47333333       0.00000000       0.00000000      -1.17152202
2
Properties=species:S:1:pos:R:3:forces:R:3 energy=19.926163287843817 pbc="F F F"
Y        0.00000000       0.00000000       0.00000000       0.00000000       0.00000000     -42.71942902
Y        0.00000000       0.00000000       1.53212121       0.00000000       0.00000000      42.71942902
2
Properties=species:S:1:pos:R:3:forces:R:3 energy=16.456065551998336 pbc="F F F"
Y        0.00000000       0.00000000       0.00000000       0.00000000       0.00000000     -71.82415009
Y        0.00000000       0.00000000       1.59090909       0.00000000       0.00000000      71.82415009
2
Properties=species:S:1:pos:R:3:forces:R:3 energy=11.926554881929965 pbc="F F F"
Y        0.00000000       0.00000000       0.00000000       0.00000000       0.00000000     -78.66870880
Y        0.00000000       0.00000000       1.64969697       0.00000000       0.00000000      78.66870880
2
Properties=species:S:1:pos:R:3:forces:R:3 energy=7.545723178205302 pbc="F F F"
Y        0.00000000       0.00000000       0.00000000       0.00000000       0.00000000     -68.41319275
Y        0.00000000       0.00000000       1.70848485       0.00000000       0.00000000      68.41319275
2
Properties=species:S:1:pos:R:3:forces:R:3 energy=3.998902954515062 pbc="F F F"
Y        0.00000000       0.00000000       0.00000000       0.00000000       0.00000000     -52.09664536
Y        0.00000000       0.00000000       1.76727273       0.00000000       0.00000000      52.09664536
2
Properties=species:S:1:pos:R:3:forces:R:3 energy=1.3789178936588953 pbc="F F F"
Y        0.00000000       0.00000000       0.00000000       0.00000000       0.00000000     -37.68180084
Y        0.00000000       0.00000000       1.82606061       0.00000000       0.00000000      37.68180084
2
Properties=species:S:1:pos:R:3:forces:R:3 energy=-0.5137477898986321 pbc="F F F"
Y        0.00000000       0.00000000       0.00000000       0.00000000       0.00000000     -27.36620903
Y        0.00000000       0.00000000       1.88484848       0.00000000       0.00000000      27.36620903
2
Properties=species:S:1:pos:R:3:forces:R:3 energy=-1.9037142039933201 pbc="F F F"
Y        0.00000000       0.00000000       0.00000000       0.00000000       0.00000000     -20.36236954
Y        0.00000000       0.00000000       1.94363636       0.00000000       0.00000000      20.36236954
2
Properties=species:S:1:pos:R:3:forces:R:3 energy=-2.9482762525580912 pbc="F F F"
Y        0.00000000       0.00000000       0.00000000       0.00000000       0.00000000     -15.43748569
Y        0.00000000       0.00000000       2.00242424       0.00000000       0.00000000      15.43748569
2
Properties=species:S:1:pos:R:3:forces:R:3 energy=-3.7430154204321893 pbc="F F F"
Y        0.00000000       0.00000000       0.00000000       0.00000000       0.00000000     -11.76113987
Y        0.00000000       0.00000000       2.06121212       0.00000000       0.00000000      11.76113987
2
Properties=species:S:1:pos:R:3:forces:R:3 energy=-4.346493091373491 pbc="F F F"
Y        0.00000000       0.00000000       0.00000000       0.00000000       0.00000000      -8.87795925
Y        0.00000000       0.00000000       2.12000000       0.00000000       0.00000000       8.87795925
2
Properties=species:S:1:pos:R:3:forces:R:3 energy=-4.7979854050999 pbc="F F F"
Y        0.00000000       0.00000000       0.00000000       0.00000000       0.00000000      -6.56766653
Y        0.00000000       0.00000000       2.17878788       0.00000000       0.00000000       6.56766653
2
Properties=species:S:1:pos:R:3:forces:R:3 energy=-5.12822782030359 pbc="F F F"
Y        0.00000000       0.00000000       0.00000000       0.00000000       0.00000000      -4.74574757
Y        0.00000000       0.00000000       2.23757576       0.00000000       0.00000000       4.74574757
2
Properties=species:S:1:pos:R:3:forces:R:3 energy=-5.36501541735454 pbc="F F F"
Y        0.00000000       0.00000000       0.00000000       0.00000000       0.00000000      -3.38547111
Y        0.00000000       0.00000000       2.29636364       0.00000000       0.00000000       3.38547111
2
Properties=species:S:1:pos:R:3:forces:R:3 energy=-5.5348598400691085 pbc="F F F"
Y        0.00000000       0.00000000       0.00000000       0.00000000       0.00000000      -2.46171927
Y        0.00000000       0.00000000       2.35515152       0.00000000       0.00000000       2.46171927
2
Properties=species:S:1:pos:R:3:forces:R:3 energy=-5.661759659391913 pbc="F F F"
Y        0.00000000       0.00000000       0.00000000       0.00000000       0.00000000      -1.90898097
Y        0.00000000       0.00000000       2.41393939       0.00000000       0.00000000       1.90898097
2
Properties=species:S:1:pos:R:3:forces:R:3 energy=-5.764381947344798 pbc="F F F"
Y        0.00000000       0.00000000       0.00000000       0.00000000       0.00000000      -1.61469650
Y        0.00000000       0.00000000       2.47272727       0.00000000       0.00000000       1.61469650
2
Properties=species:S:1:pos:R:3:forces:R:3 energy=-5.85424038828746 pbc="F F F"
Y        0.00000000       0.00000000       0.00000000       0.00000000       0.00000000      -1.45590675
Y        0.00000000       0.00000000       2.53151515       0.00000000       0.00000000       1.45590675
2
Properties=species:S:1:pos:R:3:forces:R:3 energy=-5.936370550025548 pbc="F F F"
Y        0.00000000       0.00000000       0.00000000       0.00000000       0.00000000      -1.33997571
Y        0.00000000       0.00000000       2.59030303       0.00000000       0.00000000       1.33997571
2
Properties=species:S:1:pos:R:3:forces:R:3 energy=-6.01162571835121 pbc="F F F"
Y        0.00000000       0.00000000       0.00000000       0.00000000       0.00000000      -1.21678686
Y        0.00000000       0.00000000       2.64909091       0.00000000       0.00000000       1.21678686
2
Properties=species:S:1:pos:R:3:forces:R:3 energy=-6.078929160340368 pbc="F F F"
Y        0.00000000       0.00000000       0.00000000       0.00000000       0.00000000      -1.06827402
Y        0.00000000       0.00000000       2.70787879       0.00000000       0.00000000       1.06827402
2
Properties=species:S:1:pos:R:3:forces:R:3 energy=-6.136710367216838 pbc="F F F"
Y        0.00000000       0.00000000       0.00000000       0.00000000       0.00000000      -0.89348835
Y        0.00000000       0.00000000       2.76666667       0.00000000       0.00000000       0.89348835
2
Properties=species:S:1:pos:R:3:forces:R:3 energy=-6.183580383825374 pbc="F F F"
Y        0.00000000       0.00000000       0.00000000       0.00000000       0.00000000      -0.69831580
Y        0.00000000       0.00000000       2.82545455       0.00000000       0.00000000       0.69831580
2
Properties=species:S:1:pos:R:3:forces:R:3 energy=-6.218564819963544 pbc="F F F"
Y        0.00000000       0.00000000       0.00000000       0.00000000       0.00000000      -0.49037054
Y        0.00000000       0.00000000       2.88424242       0.00000000       0.00000000       0.49037054
2
Properties=species:S:1:pos:R:3:forces:R:3 energy=-6.241137112957674 pbc="F F F"
Y        0.00000000       0.00000000       0.00000000       0.00000000       0.00000000      -0.27734163
Y        0.00000000       0.00000000       2.94303030       0.00000000       0.00000000       0.27734163
2
Properties=species:S:1:pos:R:3:forces:R:3 energy=-6.251225136059549 pbc="F F F"
Y        0.00000000       0.00000000       0.00000000       0.00000000       0.00000000      -0.06696435
Y        0.00000000       0.00000000       3.00181818       0.00000000       0.00000000       0.06696435
2
Properties=species:S:1:pos:R:3:forces:R:3 energy=-6.249218380378772 pbc="F F F"
Y        0.00000000       0.00000000       0.00000000       0.00000000       0.00000000       0.13283698
Y        0.00000000       0.00000000       3.06060606       0.00000000       0.00000000      -0.13283698
2
Properties=species:S:1:pos:R:3:forces:R:3 energy=-6.235964731449289 pbc="F F F"
Y        0.00000000       0.00000000       0.00000000       0.00000000       0.00000000       0.31442428
Y        0.00000000       0.00000000       3.11939394       0.00000000       0.00000000      -0.31442428
2
Properties=species:S:1:pos:R:3:forces:R:3 energy=-6.212731118869354 pbc="F F F"
Y        0.00000000       0.00000000       0.00000000       0.00000000       0.00000000       0.47148189
Y        0.00000000       0.00000000       3.17818182       0.00000000       0.00000000      -0.47148189
2
Properties=species:S:1:pos:R:3:forces:R:3 energy=-6.181091893081439 pbc="F F F"
Y        0.00000000       0.00000000       0.00000000       0.00000000       0.00000000       0.59997439
Y        0.00000000       0.00000000       3.23696970       0.00000000       0.00000000      -0.59997439
2
Properties=species:S:1:pos:R:3:forces:R:3 energy=-6.1427718164806855 pbc="F F F"
Y        0.00000000       0.00000000       0.00000000       0.00000000       0.00000000       0.69883287
Y        0.00000000       0.00000000       3.29575758       0.00000000       0.00000000      -0.69883287
2
Properties=species:S:1:pos:R:3:forces:R:3 energy=-6.099459295936766 pbc="F F F"
Y        0.00000000       0.00000000       0.00000000       0.00000000       0.00000000       0.77056533
Y        0.00000000       0.00000000       3.35454545       0.00000000       0.00000000      -0.77056533
2
Properties=species:S:1:pos:R:3:forces:R:3 energy=-6.052573741727359 pbc="F F F"
Y        0.00000000       0.00000000       0.00000000       0.00000000       0.00000000       0.82195354
Y        0.00000000       0.00000000       3.41333333       0.00000000       0.00000000      -0.82195354
2
Properties=species:S:1:pos:R:3:forces:R:3 energy=-6.003008656660212 pbc="F F F"
Y        0.00000000       0.00000000       0.00000000       0.00000000       0.00000000       0.86361378
Y        0.00000000       0.00000000       3.47212121       0.00000000       0.00000000      -0.86361378
2
Properties=species:S:1:pos:R:3:forces:R:3 energy=-5.951024197946343 pbc="F F F"
Y        0.00000000       0.00000000       0.00000000       0.00000000       0.00000000       0.90550536
Y        0.00000000       0.00000000       3.53090909       0.00000000       0.00000000      -0.90550536
2
Properties=species:S:1:pos:R:3:forces:R:3 energy=-5.896499094449136 pbc="F F F"
Y        0.00000000       0.00000000       0.00000000       0.00000000       0.00000000       0.94926119
Y        0.00000000       0.00000000       3.58969697       0.00000000       0.00000000      -0.94926119
2
Properties=species:S:1:pos:R:3:forces:R:3 energy=-5.83952792418379 pbc="F F F"
Y        0.00000000       0.00000000       0.00000000       0.00000000       0.00000000       0.98713493
Y        0.00000000       0.00000000       3.64848485       0.00000000       0.00000000      -0.98713493
2
Properties=species:S:1:pos:R:3:forces:R:3 energy=-5.780716683639899 pbc="F F F"
Y        0.00000000       0.00000000       0.00000000       0.00000000       0.00000000       1.01099265
Y        0.00000000       0.00000000       3.70727273       0.00000000       0.00000000      -1.01099265
2
Properties=species:S:1:pos:R:3:forces:R:3 energy=-5.720972138289383 pbc="F F F"
Y        0.00000000       0.00000000       0.00000000       0.00000000       0.00000000       1.01905012
Y        0.00000000       0.00000000       3.76606061       0.00000000       0.00000000      -1.01905012
2
Properties=species:S:1:pos:R:3:forces:R:3 energy=-5.661154673047528 pbc="F F F"
Y        0.00000000       0.00000000       0.00000000       0.00000000       0.00000000       1.01416874
Y        0.00000000       0.00000000       3.82484848       0.00000000       0.00000000      -1.01416874
2
Properties=species:S:1:pos:R:3:forces:R:3 energy=-5.601911176663695 pbc="F F F"
Y        0.00000000       0.00000000       0.00000000       0.00000000       0.00000000       1.00004184
Y        0.00000000       0.00000000       3.88363636       0.00000000       0.00000000      -1.00004184
2
Properties=species:S:1:pos:R:3:forces:R:3 energy=-5.543696420808115 pbc="F F F"
Y        0.00000000       0.00000000       0.00000000       0.00000000       0.00000000       0.97962147
Y        0.00000000       0.00000000       3.94242424       0.00000000       0.00000000      -0.97962147
2
Properties=species:S:1:pos:R:3:forces:R:3 energy=-5.4868120031048075 pbc="F F F"
Y        0.00000000       0.00000000       0.00000000       0.00000000       0.00000000       0.95511514
Y        0.00000000       0.00000000       4.00121212       0.00000000       0.00000000      -0.95511514
2
Properties=species:S:1:pos:R:3:forces:R:3 energy=-5.431444747856698 pbc="F F F"
Y        0.00000000       0.00000000       0.00000000       0.00000000       0.00000000       0.92825598
Y        0.00000000       0.00000000       4.06000000       0.00000000       0.00000000      -0.92825598
2
Properties=species:S:1:pos:R:3:forces:R:3 energy=-5.377691477070682 pbc="F F F"
Y        0.00000000       0.00000000       0.00000000       0.00000000       0.00000000       0.90041518
Y        0.00000000       0.00000000       4.11878788       0.00000000       0.00000000      -0.90041518
2
Properties=species:S:1:pos:R:3:forces:R:3 energy=-5.325576515457771 pbc="F F F"
Y        0.00000000       0.00000000       0.00000000       0.00000000       0.00000000       0.87258548
Y        0.00000000       0.00000000       4.17757576       0.00000000       0.00000000      -0.87258548
2
Properties=species:S:1:pos:R:3:forces:R:3 energy=-5.275081641835646 pbc="F F F"
Y        0.00000000       0.00000000       0.00000000       0.00000000       0.00000000       0.84542209
Y        0.00000000       0.00000000       4.23636364       0.00000000       0.00000000      -0.84542209
2
Properties=species:S:1:pos:R:3:forces:R:3 energy=-5.226154361431228 pbc="F F F"
Y        0.00000000       0.00000000       0.00000000       0.00000000       0.00000000       0.81927574
Y        0.00000000       0.00000000       4.29515152       0.00000000       0.00000000      -0.81927574
2
Properties=species:S:1:pos:R:3:forces:R:3 energy=-5.178731910801513 pbc="F F F"
Y        0.00000000       0.00000000       0.00000000       0.00000000       0.00000000       0.79431802
Y        0.00000000       0.00000000       4.35393939       0.00000000       0.00000000      -0.79431802
2
Properties=species:S:1:pos:R:3:forces:R:3 energy=-5.132739095395323 pbc="F F F"
Y        0.00000000       0.00000000       0.00000000       0.00000000       0.00000000       0.77058935
Y        0.00000000       0.00000000       4.41272727       0.00000000       0.00000000      -0.77058935
2
Properties=species:S:1:pos:R:3:forces:R:3 energy=-5.088105143580598 pbc="F F F"
Y        0.00000000       0.00000000       0.00000000       0.00000000       0.00000000       0.74805176
Y        0.00000000       0.00000000       4.47151515       0.00000000       0.00000000      -0.74805176
2
Properties=species:S:1:pos:R:3:forces:R:3 energy=-5.044764183481554 pbc="F F F"
Y        0.00000000       0.00000000       0.00000000       0.00000000       0.00000000       0.72658634
Y        0.00000000       0.00000000       4.53030303       0.00000000       0.00000000      -0.72658634
2
Properties=species:S:1:pos:R:3:forces:R:3 energy=-5.00266101570974 pbc="F F F"
Y        0.00000000       0.00000000       0.00000000       0.00000000       0.00000000       0.70592707
Y        0.00000000       0.00000000       4.58909091       0.00000000       0.00000000      -0.70592707
2
Properties=species:S:1:pos:R:3:forces:R:3 energy=-4.96175746430255 pbc="F F F"
Y        0.00000000       0.00000000       0.00000000       0.00000000       0.00000000       0.68565339
Y        0.00000000       0.00000000       4.64787879       0.00000000       0.00000000      -0.68565339
2
Properties=species:S:1:pos:R:3:forces:R:3 energy=-4.922048468809362 pbc="F F F"
Y        0.00000000       0.00000000       0.00000000       0.00000000       0.00000000       0.66514963
Y        0.00000000       0.00000000       4.70666667       0.00000000       0.00000000      -0.66514963
2
Properties=species:S:1:pos:R:3:forces:R:3 energy=-4.8835711251906195 pbc="F F F"
Y        0.00000000       0.00000000       0.00000000       0.00000000       0.00000000       0.64370543
Y        0.00000000       0.00000000       4.76545455       0.00000000       0.00000000      -0.64370543
2
Properties=species:S:1:pos:R:3:forces:R:3 energy=-4.846393368438909 pbc="F F F"
Y        0.00000000       0.00000000       0.00000000       0.00000000       0.00000000       0.62070656
Y        0.00000000       0.00000000       4.82424242       0.00000000       0.00000000      -0.62070656
2
Properties=species:S:1:pos:R:3:forces:R:3 energy=-4.810627190970865 pbc="F F F"
Y        0.00000000       0.00000000       0.00000000       0.00000000       0.00000000       0.59591991
Y        0.00000000       0.00000000       4.88303030       0.00000000       0.00000000      -0.59591991
2
Properties=species:S:1:pos:R:3:forces:R:3 energy=-4.776357009347489 pbc="F F F"
Y        0.00000000       0.00000000       0.00000000       0.00000000       0.00000000       0.56976479
Y        0.00000000       0.00000000       4.94181818       0.00000000       0.00000000      -0.56976479
2
Properties=species:S:1:pos:R:3:forces:R:3 energy=-4.743637273752709 pbc="F F F"
Y        0.00000000       0.00000000       0.00000000       0.00000000       0.00000000       0.54354638
Y        0.00000000       0.00000000       5.00060606       0.00000000       0.00000000      -0.54354638
2
Properties=species:S:1:pos:R:3:forces:R:3 energy=-4.712408996148118 pbc="F F F"
Y        0.00000000       0.00000000       0.00000000       0.00000000       0.00000000       0.51928622
Y        0.00000000       0.00000000       5.05939394       0.00000000       0.00000000      -0.51928622
2
Properties=species:S:1:pos:R:3:forces:R:3 energy=-4.68250194438944 pbc="F F F"
Y        0.00000000       0.00000000       0.00000000       0.00000000       0.00000000       0.49904102
Y        0.00000000       0.00000000       5.11818182       0.00000000       0.00000000      -0.49904102
2
Properties=species:S:1:pos:R:3:forces:R:3 energy=-4.653639779729311 pbc="F F F"
Y        0.00000000       0.00000000       0.00000000       0.00000000       0.00000000       0.48361340
Y        0.00000000       0.00000000       5.17696970       0.00000000       0.00000000      -0.48361340
2
Properties=species:S:1:pos:R:3:forces:R:3 energy=-4.625588422865575 pbc="F F F"
Y        0.00000000       0.00000000       0.00000000       0.00000000       0.00000000       0.47075951
Y        0.00000000       0.00000000       5.23575758       0.00000000       0.00000000      -0.47075951
2
Properties=species:S:1:pos:R:3:forces:R:3 energy=-4.5983634417550645 pbc="F F F"
Y        0.00000000       0.00000000       0.00000000       0.00000000       0.00000000       0.45411664
Y        0.00000000       0.00000000       5.29454545       0.00000000       0.00000000      -0.45411664
2
Properties=species:S:1:pos:R:3:forces:R:3 energy=-4.572409207672724 pbc="F F F"
Y        0.00000000       0.00000000       0.00000000       0.00000000       0.00000000       0.42692459
Y        0.00000000       0.00000000       5.35333333       0.00000000       0.00000000      -0.42692459
2
Properties=species:S:1:pos:R:3:forces:R:3 energy=-4.54827204001069 pbc="F F F"
Y        0.00000000       0.00000000       0.00000000       0.00000000       0.00000000       0.39529529
Y        0.00000000       0.00000000       5.41212121       0.00000000       0.00000000      -0.39529529
2
Properties=species:S:1:pos:R:3:forces:R:3 energy=-4.525561274809064 pbc="F F F"
Y        0.00000000       0.00000000       0.00000000       0.00000000       0.00000000       0.38153192
Y        0.00000000       0.00000000       5.47090909       0.00000000       0.00000000      -0.38153192
2
Properties=species:S:1:pos:R:3:forces:R:3 energy=-4.503145428561623 pbc="F F F"
Y        0.00000000       0.00000000       0.00000000       0.00000000       0.00000000       0.37954378
Y        0.00000000       0.00000000       5.52969697       0.00000000       0.00000000      -0.37954378
2
Properties=species:S:1:pos:R:3:forces:R:3 energy=-4.481483830549117 pbc="F F F"
Y        0.00000000       0.00000000       0.00000000       0.00000000       0.00000000       0.35177028
Y        0.00000000       0.00000000       5.58848485       0.00000000       0.00000000      -0.35177028
2
Properties=species:S:1:pos:R:3:forces:R:3 energy=-4.46221207395076 pbc="F F F"
Y        0.00000000       0.00000000       0.00000000       0.00000000       0.00000000       0.30406320
Y        0.00000000       0.00000000       5.64727273       0.00000000       0.00000000      -0.30406320
2
Properties=species:S:1:pos:R:3:forces:R:3 energy=-4.4452490384697585 pbc="F F F"
Y        0.00000000       0.00000000       0.00000000       0.00000000       0.00000000       0.28094026
Y        0.00000000       0.00000000       5.70606061       0.00000000       0.00000000      -0.28094026
2
Properties=species:S:1:pos:R:3:forces:R:3 energy=-4.428164181277358 pbc="F F F"
Y        0.00000000       0.00000000       0.00000000       0.00000000       0.00000000       0.30331695
Y        0.00000000       0.00000000       5.76484848       0.00000000       0.00000000      -0.30331695
2
Properties=species:S:1:pos:R:3:forces:R:3 energy=-4.410220515732179 pbc="F F F"
Y        0.00000000       0.00000000       0.00000000       0.00000000       0.00000000       0.29343277
Y        0.00000000       0.00000000       5.82363636       0.00000000       0.00000000      -0.29343277
2
Properties=species:S:1:pos:R:3:forces:R:3 energy=-4.3955584150716795 pbc="F F F"
Y        0.00000000       0.00000000       0.00000000       0.00000000       0.00000000       0.19574107
Y        0.00000000       0.00000000       5.88242424       0.00000000       0.00000000      -0.19574107
2
Properties=species:S:1:pos:R:3:forces:R:3 energy=-4.38754475780228 pbc="F F F"
Y        0.00000000       0.00000000       0.00000000       0.00000000       0.00000000       0.08137049
Y        0.00000000       0.00000000       5.94121212       0.00000000       0.00000000      -0.08137049
2
Properties=species:S:1:pos:R:3:forces:R:3 energy=-4.384625760892877 pbc="F F F"
Y        0.00000000       0.00000000       0.00000000       0.00000000       0.00000000       0.03343363
Y        0.00000000       0.00000000       6.00000000       0.00000000       0.00000000      -0.03343363
