2
Properties=species:S:1:pos:R:3:forces:R:3 energy=13961.460415705382 pbc="F F F"
Yb       0.00000000       0.00000000       0.00000000       0.00000000       0.00000000 -239068.75000000
Yb       0.00000000       0.00000000       0.18000000       0.00000000       0.00000000  239068.75000000
2
Properties=species:S:1:pos:R:3:forces:R:3 energy=5590.093716486632 pbc="F F F"
Yb       0.00000000       0.00000000       0.00000000       0.00000000       0.00000000  -79447.11718750
Yb       0.00000000       0.00000000       0.23878788       0.00000000       0.00000000   79447.11718750
2
Properties=species:S:1:pos:R:3:forces:R:3 energy=2591.2301910960064 pbc="F F F"
Yb       0.00000000       0.00000000       0.00000000       0.00000000       0.00000000  -31086.23437500
Yb       0.00000000       0.00000000       0.29757576       0.00000000       0.00000000   31086.23437500
2
Properties=species:S:1:pos:R:3:forces:R:3 energy=1361.0943268445296 pbc="F F F"
Yb       0.00000000       0.00000000       0.00000000       0.00000000       0.00000000  -13484.82714844
Yb       0.00000000       0.00000000       0.35636364       0.00000000       0.00000000   13484.82714844
2
Properties=species:S:1:pos:R:3:forces:R:3 energy=808.3771027234359 pbc="F F F"
Yb       0.00000000       0.00000000       0.00000000       0.00000000       0.00000000   -6327.59228516
Yb       0.00000000       0.00000000       0.41515152       0.00000000       0.00000000    6327.59228516
2
Properties=species:S:1:pos:R:3:forces:R:3 energy=540.4361847610214 pbc="F F F"
Yb       0.00000000       0.00000000       0.00000000       0.00000000       0.00000000   -3199.43261719
Yb       0.00000000       0.00000000       0.47393939       0.00000000       0.00000000    3199.43261719
2
Properties=species:S:1:pos:R:3:forces:R:3 energy=399.86532295728654 pbc="F F F"
Yb       0.00000000       0.00000000       0.00000000       0.00000000       0.00000000   -1762.51354980
Yb       0.00000000       0.00000000       0.53272727       0.00000000       0.00000000    1762.51354980
2
Properties=species:S:1:pos:R:3:forces:R:3 energy=318.75167552802725 pbc="F F F"
Yb       0.00000000       0.00000000       0.00000000       0.00000000       0.00000000   -1079.17163086
Yb       0.00000000       0.00000000       0.59151515       0.00000000       0.00000000    1079.17163086
2
Properties=species:S:1:pos:R:3:forces:R:3 energy=266.33279128869736 pbc="F F F"
Yb       0.00000000       0.00000000       0.00000000       0.00000000       0.00000000    -741.41522217
Yb       0.00000000       0.00000000       0.65030303       0.00000000       0.00000000     741.41522217
2
Properties=species:S:1:pos:R:3:forces:R:3 energy=228.68121054784257 pbc="F F F"
Yb       0.00000000       0.00000000       0.00000000       0.00000000       0.00000000    -554.96496582
Yb       0.00000000       0.00000000       0.70909091       0.00000000       0.00000000     554.96496582
2
Properties=species:S:1:pos:R:3:forces:R:3 energy=199.88111603838504 pbc="F F F"
Yb       0.00000000       0.00000000       0.00000000       0.00000000       0.00000000    -431.21447754
Yb       0.00000000       0.00000000       0.76787879       0.00000000       0.00000000     431.21447754
2
Properties=species:S:1:pos:R:3:forces:R:3 energy=177.7393162636827 pbc="F F F"
Yb       0.00000000       0.00000000       0.00000000       0.00000000       0.00000000    -318.83898926
Yb       0.00000000       0.00000000       0.82666667       0.00000000       0.00000000     318.83898926
2
Properties=species:S:1:pos:R:3:forces:R:3 energy=162.8505377989068 pbc="F F F"
Yb       0.00000000       0.00000000       0.00000000       0.00000000       0.00000000    -189.94787598
Yb       0.00000000       0.00000000       0.88545455       0.00000000       0.00000000     189.94787598
2
Properties=species:S:1:pos:R:3:forces:R:3 energy=154.25530799414304 pbc="F F F"
Yb       0.00000000       0.00000000       0.00000000       0.00000000       0.00000000    -115.06086731
Yb       0.00000000       0.00000000       0.94424242       0.00000000       0.00000000     115.06086731
2
Properties=species:S:1:pos:R:3:forces:R:3 energy=147.61230303486616 pbc="F F F"
Yb       0.00000000       0.00000000       0.00000000       0.00000000       0.00000000    -133.32594299
Yb       0.00000000       0.00000000       1.00303030       0.00000000       0.00000000     133.32594299
2
Properties=species:S:1:pos:R:3:forces:R:3 energy=135.7783955176838 pbc="F F F"
Yb       0.00000000       0.00000000       0.00000000       0.00000000       0.00000000    -282.11465454
Yb       0.00000000       0.00000000       1.06181818       0.00000000       0.00000000     282.11465454
2
Properties=species:S:1:pos:R:3:forces:R:3 energy=114.83203852556777 pbc="F F F"
Yb       0.00000000       0.00000000       0.00000000       0.00000000       0.00000000    -364.35134888
Yb       0.00000000       0.00000000       1.12060606       0.00000000       0.00000000     364.35134888
2
Properties=species:S:1:pos:R:3:forces:R:3 energy=94.18393005888619 pbc="F F F"
Yb       0.00000000       0.00000000       0.00000000       0.00000000       0.00000000    -338.58859253
Yb       0.00000000       0.00000000       1.17939394       0.00000000       0.00000000     338.58859253
2
Properties=species:S:1:pos:R:3:forces:R:3 energy=75.34422489878096 pbc="F F F"
Yb       0.00000000       0.00000000       0.00000000       0.00000000       0.00000000    -300.70834351
Yb       0.00000000       0.00000000       1.23818182       0.00000000       0.00000000     300.70834351
2
Properties=species:S:1:pos:R:3:forces:R:3 energy=58.86735119652319 pbc="F F F"
Yb       0.00000000       0.00000000       0.00000000       0.00000000       0.00000000    -259.87234497
Yb       0.00000000       0.00000000       1.29696970       0.00000000       0.00000000     259.87234497
2
Properties=species:S:1:pos:R:3:forces:R:3 energy=44.837358259329754 pbc="F F F"
Yb       0.00000000       0.00000000       0.00000000       0.00000000       0.00000000    -216.33703613
Yb       0.00000000       0.00000000       1.35575758       0.00000000       0.00000000     216.33703613
2
Properties=species:S:1:pos:R:3:forces:R:3 energy=33.603451192989525 pbc="F F F"
Yb       0.00000000       0.00000000       0.00000000       0.00000000       0.00000000    -164.90663147
Yb       0.00000000       0.00000000       1.41454545       0.00000000       0.00000000     164.90663147
2
Properties=species:S:1:pos:R:3:forces:R:3 energy=25.351199868392044 pbc="F F F"
Yb       0.00000000       0.00000000       0.00000000       0.00000000       0.00000000    -118.38734436
Yb       0.00000000       0.00000000       1.47333333       0.00000000       0.00000000     118.38734436
2
Properties=species:S:1:pos:R:3:forces:R:3 energy=19.352941353082134 pbc="F F F"
Yb       0.00000000       0.00000000       0.00000000       0.00000000       0.00000000     -87.65455627
Yb       0.00000000       0.00000000       1.53212121       0.00000000       0.00000000      87.65455627
2
Properties=species:S:1:pos:R:3:forces:R:3 energy=14.944358655401489 pbc="F F F"
Yb       0.00000000       0.00000000       0.00000000       0.00000000       0.00000000     -62.79174423
Yb       0.00000000       0.00000000       1.59090909       0.00000000       0.00000000      62.79174423
2
Properties=species:S:1:pos:R:3:forces:R:3 energy=11.85005081198809 pbc="F F F"
Yb       0.00000000       0.00000000       0.00000000       0.00000000       0.00000000     -44.06288910
Yb       0.00000000       0.00000000       1.64969697       0.00000000       0.00000000      44.06288910
2
Properties=species:S:1:pos:R:3:forces:R:3 energy=9.576045202912734 pbc="F F F"
Yb       0.00000000       0.00000000       0.00000000       0.00000000       0.00000000     -34.57344437
Yb       0.00000000       0.00000000       1.70848485       0.00000000       0.00000000      34.57344437
2
Properties=species:S:1:pos:R:3:forces:R:3 energy=7.691083377822335 pbc="F F F"
Yb       0.00000000       0.00000000       0.00000000       0.00000000       0.00000000     -29.95015144
Yb       0.00000000       0.00000000       1.76727273       0.00000000       0.00000000      29.95015144
2
Properties=species:S:1:pos:R:3:forces:R:3 energy=6.0348629131212315 pbc="F F F"
Yb       0.00000000       0.00000000       0.00000000       0.00000000       0.00000000     -26.43572617
Yb       0.00000000       0.00000000       1.82606061       0.00000000       0.00000000      26.43572617
2
Properties=species:S:1:pos:R:3:forces:R:3 energy=4.582670050155753 pbc="F F F"
Yb       0.00000000       0.00000000       0.00000000       0.00000000       0.00000000     -22.96024704
Yb       0.00000000       0.00000000       1.88484848       0.00000000       0.00000000      22.96024704
2
Properties=species:S:1:pos:R:3:forces:R:3 energy=3.3354818876197596 pbc="F F F"
Yb       0.00000000       0.00000000       0.00000000       0.00000000       0.00000000     -19.47914886
Yb       0.00000000       0.00000000       1.94363636       0.00000000       0.00000000      19.47914886
2
Properties=species:S:1:pos:R:3:forces:R:3 energy=2.289812089987752 pbc="F F F"
Yb       0.00000000       0.00000000       0.00000000       0.00000000       0.00000000     -16.12988663
Yb       0.00000000       0.00000000       2.00242424       0.00000000       0.00000000      16.12988663
2
Properties=species:S:1:pos:R:3:forces:R:3 energy=1.4335099089695433 pbc="F F F"
Yb       0.00000000       0.00000000       0.00000000       0.00000000       0.00000000     -13.06012440
Yb       0.00000000       0.00000000       2.06121212       0.00000000       0.00000000      13.06012440
2
Properties=species:S:1:pos:R:3:forces:R:3 energy=0.7462509923299643 pbc="F F F"
Yb       0.00000000       0.00000000       0.00000000       0.00000000       0.00000000     -10.39747429
Yb       0.00000000       0.00000000       2.12000000       0.00000000       0.00000000      10.39747429
2
Properties=species:S:1:pos:R:3:forces:R:3 energy=0.20141797753976756 pbc="F F F"
Yb       0.00000000       0.00000000       0.00000000       0.00000000       0.00000000      -8.22185421
Yb       0.00000000       0.00000000       2.17878788       0.00000000       0.00000000       8.22185421
2
Properties=species:S:1:pos:R:3:forces:R:3 energy=-0.23008464821392496 pbc="F F F"
Yb       0.00000000       0.00000000       0.00000000       0.00000000       0.00000000      -6.53604412
Yb       0.00000000       0.00000000       2.23757576       0.00000000       0.00000000       6.53604412
2
Properties=species:S:1:pos:R:3:forces:R:3 energy=-0.5754592528556165 pbc="F F F"
Yb       0.00000000       0.00000000       0.00000000       0.00000000       0.00000000      -5.27758026
Yb       0.00000000       0.00000000       2.29636364       0.00000000       0.00000000       5.27758026
2
Properties=species:S:1:pos:R:3:forces:R:3 energy=-0.8570505024962946 pbc="F F F"
Yb       0.00000000       0.00000000       0.00000000       0.00000000       0.00000000      -4.34799385
Yb       0.00000000       0.00000000       2.35515152       0.00000000       0.00000000       4.34799385
2
Properties=species:S:1:pos:R:3:forces:R:3 energy=-1.0909592878053476 pbc="F F F"
Yb       0.00000000       0.00000000       0.00000000       0.00000000       0.00000000      -3.63745236
Yb       0.00000000       0.00000000       2.41393939       0.00000000       0.00000000       3.63745236
2
Properties=species:S:1:pos:R:3:forces:R:3 energy=-1.2871530075045607 pbc="F F F"
Yb       0.00000000       0.00000000       0.00000000       0.00000000       0.00000000      -3.05199599
Yb       0.00000000       0.00000000       2.47272727       0.00000000       0.00000000       3.05199599
2
Properties=species:S:1:pos:R:3:forces:R:3 energy=-1.4510910444059129 pbc="F F F"
Yb       0.00000000       0.00000000       0.00000000       0.00000000       0.00000000      -2.53361559
Yb       0.00000000       0.00000000       2.53151515       0.00000000       0.00000000       2.53361559
2
Properties=species:S:1:pos:R:3:forces:R:3 energy=-1.5858831282104713 pbc="F F F"
Yb       0.00000000       0.00000000       0.00000000       0.00000000       0.00000000      -2.05865049
Yb       0.00000000       0.00000000       2.59030303       0.00000000       0.00000000       2.05865049
2
Properties=species:S:1:pos:R:3:forces:R:3 energy=-1.6938949147441966 pbc="F F F"
Yb       0.00000000       0.00000000       0.00000000       0.00000000       0.00000000      -1.62252104
Yb       0.00000000       0.00000000       2.64909091       0.00000000       0.00000000       1.62252104
2
Properties=species:S:1:pos:R:3:forces:R:3 energy=-1.777442435922423 pbc="F F F"
Yb       0.00000000       0.00000000       0.00000000       0.00000000       0.00000000      -1.22668743
Yb       0.00000000       0.00000000       2.70787879       0.00000000       0.00000000       1.22668743
2
Properties=species:S:1:pos:R:3:forces:R:3 energy=-1.8389444198795861 pbc="F F F"
Yb       0.00000000       0.00000000       0.00000000       0.00000000       0.00000000      -0.87264150
Yb       0.00000000       0.00000000       2.76666667       0.00000000       0.00000000       0.87264150
2
Properties=species:S:1:pos:R:3:forces:R:3 energy=-1.8808641081643749 pbc="F F F"
Yb       0.00000000       0.00000000       0.00000000       0.00000000       0.00000000      -0.56039244
Yb       0.00000000       0.00000000       2.82545455       0.00000000       0.00000000       0.56039244
2
Properties=species:S:1:pos:R:3:forces:R:3 energy=-1.9056227869912 pbc="F F F"
Yb       0.00000000       0.00000000       0.00000000       0.00000000       0.00000000      -0.28842098
Yb       0.00000000       0.00000000       2.88424242       0.00000000       0.00000000       0.28842098
2
Properties=species:S:1:pos:R:3:forces:R:3 energy=-1.9155094749479653 pbc="F F F"
Yb       0.00000000       0.00000000       0.00000000       0.00000000       0.00000000      -0.05390418
Yb       0.00000000       0.00000000       2.94303030       0.00000000       0.00000000       0.05390418
2
Properties=species:S:1:pos:R:3:forces:R:3 energy=-1.9126206549486626 pbc="F F F"
Yb       0.00000000       0.00000000       0.00000000       0.00000000       0.00000000       0.14692314
Yb       0.00000000       0.00000000       3.00181818       0.00000000       0.00000000      -0.14692314
2
Properties=species:S:1:pos:R:3:forces:R:3 energy=-1.8988142582796506 pbc="F F F"
Yb       0.00000000       0.00000000       0.00000000       0.00000000       0.00000000       0.31822333
Yb       0.00000000       0.00000000       3.06060606       0.00000000       0.00000000      -0.31822333
2
Properties=species:S:1:pos:R:3:forces:R:3 energy=-1.8757074629795982 pbc="F F F"
Yb       0.00000000       0.00000000       0.00000000       0.00000000       0.00000000       0.46389726
Yb       0.00000000       0.00000000       3.11939394       0.00000000       0.00000000      -0.46389726
2
Properties=species:S:1:pos:R:3:forces:R:3 energy=-1.8447104795856295 pbc="F F F"
Yb       0.00000000       0.00000000       0.00000000       0.00000000       0.00000000       0.58706957
Yb       0.00000000       0.00000000       3.17818182       0.00000000       0.00000000      -0.58706957
2
Properties=species:S:1:pos:R:3:forces:R:3 energy=-1.807080277676997 pbc="F F F"
Yb       0.00000000       0.00000000       0.00000000       0.00000000       0.00000000       0.68989152
Yb       0.00000000       0.00000000       3.23696970       0.00000000       0.00000000      -0.68989152
2
Properties=species:S:1:pos:R:3:forces:R:3 energy=-1.763967546831568 pbc="F F F"
Yb       0.00000000       0.00000000       0.00000000       0.00000000       0.00000000       0.77377075
Yb       0.00000000       0.00000000       3.29575758       0.00000000       0.00000000      -0.77377075
2
Properties=species:S:1:pos:R:3:forces:R:3 energy=-1.7164530883053124 pbc="F F F"
Yb       0.00000000       0.00000000       0.00000000       0.00000000       0.00000000       0.83980727
Yb       0.00000000       0.00000000       3.35454545       0.00000000       0.00000000      -0.83980727
2
Properties=species:S:1:pos:R:3:forces:R:3 energy=-1.6655515968833932 pbc="F F F"
Yb       0.00000000       0.00000000       0.00000000       0.00000000       0.00000000       0.88927084
Yb       0.00000000       0.00000000       3.41333333       0.00000000       0.00000000      -0.88927084
2
Properties=species:S:1:pos:R:3:forces:R:3 energy=-1.6121875500934089 pbc="F F F"
Yb       0.00000000       0.00000000       0.00000000       0.00000000       0.00000000       0.92387199
Yb       0.00000000       0.00000000       3.47212121       0.00000000       0.00000000      -0.92387199
2
Properties=species:S:1:pos:R:3:forces:R:3 energy=-1.5571755450082614 pbc="F F F"
Yb       0.00000000       0.00000000       0.00000000       0.00000000       0.00000000       0.94578552
Yb       0.00000000       0.00000000       3.53090909       0.00000000       0.00000000      -0.94578552
2
Properties=species:S:1:pos:R:3:forces:R:3 energy=-1.501187283608595 pbc="F F F"
Yb       0.00000000       0.00000000       0.00000000       0.00000000       0.00000000       0.95744658
Yb       0.00000000       0.00000000       3.58969697       0.00000000       0.00000000      -0.95744658
2
Properties=species:S:1:pos:R:3:forces:R:3 energy=-1.4447565997478427 pbc="F F F"
Yb       0.00000000       0.00000000       0.00000000       0.00000000       0.00000000       0.96124440
Yb       0.00000000       0.00000000       3.64848485       0.00000000       0.00000000      -0.96124440
2
Properties=species:S:1:pos:R:3:forces:R:3 energy=-1.3882826702994469 pbc="F F F"
Yb       0.00000000       0.00000000       0.00000000       0.00000000       0.00000000       0.95923281
Yb       0.00000000       0.00000000       3.70727273       0.00000000       0.00000000      -0.95923281
2
Properties=species:S:1:pos:R:3:forces:R:3 energy=-1.3320566495135846 pbc="F F F"
Yb       0.00000000       0.00000000       0.00000000       0.00000000       0.00000000       0.95296997
Yb       0.00000000       0.00000000       3.76606061       0.00000000       0.00000000      -0.95296997
2
Properties=species:S:1:pos:R:3:forces:R:3 energy=-1.276298793791371 pbc="F F F"
Yb       0.00000000       0.00000000       0.00000000       0.00000000       0.00000000       0.94351119
Yb       0.00000000       0.00000000       3.82484848       0.00000000       0.00000000      -0.94351119
2
Properties=species:S:1:pos:R:3:forces:R:3 energy=-1.2211726590936538 pbc="F F F"
Yb       0.00000000       0.00000000       0.00000000       0.00000000       0.00000000       0.93149084
Yb       0.00000000       0.00000000       3.88363636       0.00000000       0.00000000      -0.93149084
2
Properties=species:S:1:pos:R:3:forces:R:3 energy=-1.1668205326105379 pbc="F F F"
Yb       0.00000000       0.00000000       0.00000000       0.00000000       0.00000000       0.91725969
Yb       0.00000000       0.00000000       3.94242424       0.00000000       0.00000000      -0.91725969
2
Properties=species:S:1:pos:R:3:forces:R:3 energy=-1.1133659793380246 pbc="F F F"
Yb       0.00000000       0.00000000       0.00000000       0.00000000       0.00000000       0.90099585
Yb       0.00000000       0.00000000       4.00121212       0.00000000       0.00000000      -0.90099585
2
Properties=species:S:1:pos:R:3:forces:R:3 energy=-1.06092420811851 pbc="F F F"
Yb       0.00000000       0.00000000       0.00000000       0.00000000       0.00000000       0.88276333
Yb       0.00000000       0.00000000       4.06000000       0.00000000       0.00000000      -0.88276333
2
Properties=species:S:1:pos:R:3:forces:R:3 energy=-1.0096129260217783 pbc="F F F"
Yb       0.00000000       0.00000000       0.00000000       0.00000000       0.00000000       0.86257875
Yb       0.00000000       0.00000000       4.11878788       0.00000000       0.00000000      -0.86257875
2
Properties=species:S:1:pos:R:3:forces:R:3 energy=-0.9595441509178898 pbc="F F F"
Yb       0.00000000       0.00000000       0.00000000       0.00000000       0.00000000       0.84042466
Yb       0.00000000       0.00000000       4.17757576       0.00000000       0.00000000      -0.84042466
2
Properties=species:S:1:pos:R:3:forces:R:3 energy=-0.9108364088385787 pbc="F F F"
Yb       0.00000000       0.00000000       0.00000000       0.00000000       0.00000000       0.81631118
Yb       0.00000000       0.00000000       4.23636364       0.00000000       0.00000000      -0.81631118
2
Properties=species:S:1:pos:R:3:forces:R:3 energy=-0.8636022550157181 pbc="F F F"
Yb       0.00000000       0.00000000       0.00000000       0.00000000       0.00000000       0.79029852
Yb       0.00000000       0.00000000       4.29515152       0.00000000       0.00000000      -0.79029852
2
Properties=species:S:1:pos:R:3:forces:R:3 energy=-0.8179513301412886 pbc="F F F"
Yb       0.00000000       0.00000000       0.00000000       0.00000000       0.00000000       0.76255190
Yb       0.00000000       0.00000000       4.35393939       0.00000000       0.00000000      -0.76255190
2
Properties=species:S:1:pos:R:3:forces:R:3 energy=-0.773974599398582 pbc="F F F"
Yb       0.00000000       0.00000000       0.00000000       0.00000000       0.00000000       0.73334199
Yb       0.00000000       0.00000000       4.41272727       0.00000000       0.00000000      -0.73334199
2
Properties=species:S:1:pos:R:3:forces:R:3 energy=-0.7317485386265751 pbc="F F F"
Yb       0.00000000       0.00000000       0.00000000       0.00000000       0.00000000       0.70305991
Yb       0.00000000       0.00000000       4.47151515       0.00000000       0.00000000      -0.70305991
2
Properties=species:S:1:pos:R:3:forces:R:3 energy=-0.6913226795330182 pbc="F F F"
Yb       0.00000000       0.00000000       0.00000000       0.00000000       0.00000000       0.67216957
Yb       0.00000000       0.00000000       4.53030303       0.00000000       0.00000000      -0.67216957
2
Properties=species:S:1:pos:R:3:forces:R:3 energy=-0.6527206647390602 pbc="F F F"
Yb       0.00000000       0.00000000       0.00000000       0.00000000       0.00000000       0.64112967
Yb       0.00000000       0.00000000       4.58909091       0.00000000       0.00000000      -0.64112967
2
Properties=species:S:1:pos:R:3:forces:R:3 energy=-0.6159376885313214 pbc="F F F"
Yb       0.00000000       0.00000000       0.00000000       0.00000000       0.00000000       0.61033559
Yb       0.00000000       0.00000000       4.64787879       0.00000000       0.00000000      -0.61033559
2
Properties=species:S:1:pos:R:3:forces:R:3 energy=-0.5809501769889723 pbc="F F F"
Yb       0.00000000       0.00000000       0.00000000       0.00000000       0.00000000       0.58002096
Yb       0.00000000       0.00000000       4.70666667       0.00000000       0.00000000      -0.58002096
2
Properties=species:S:1:pos:R:3:forces:R:3 energy=-0.5477302090159761 pbc="F F F"
Yb       0.00000000       0.00000000       0.00000000       0.00000000       0.00000000       0.55026948
Yb       0.00000000       0.00000000       4.76545455       0.00000000       0.00000000      -0.55026948
2
Properties=species:S:1:pos:R:3:forces:R:3 energy=-0.5162398412285463 pbc="F F F"
Yb       0.00000000       0.00000000       0.00000000       0.00000000       0.00000000       0.52106625
Yb       0.00000000       0.00000000       4.82424242       0.00000000       0.00000000      -0.52106625
2
Properties=species:S:1:pos:R:3:forces:R:3 energy=-0.4864554139789266 pbc="F F F"
Yb       0.00000000       0.00000000       0.00000000       0.00000000       0.00000000       0.49243811
Yb       0.00000000       0.00000000       4.88303030       0.00000000       0.00000000      -0.49243811
2
Properties=species:S:1:pos:R:3:forces:R:3 energy=-0.4583267437644988 pbc="F F F"
Yb       0.00000000       0.00000000       0.00000000       0.00000000       0.00000000       0.46462613
Yb       0.00000000       0.00000000       4.94181818       0.00000000       0.00000000      -0.46462613
2
Properties=species:S:1:pos:R:3:forces:R:3 energy=-0.43179822960767744 pbc="F F F"
Yb       0.00000000       0.00000000       0.00000000       0.00000000       0.00000000       0.43820539
Yb       0.00000000       0.00000000       5.00060606       0.00000000       0.00000000      -0.43820539
2
Properties=species:S:1:pos:R:3:forces:R:3 energy=-0.40675955109519024 pbc="F F F"
Yb       0.00000000       0.00000000       0.00000000       0.00000000       0.00000000       0.41401309
Yb       0.00000000       0.00000000       5.05939394       0.00000000       0.00000000      -0.41401309
2
Properties=species:S:1:pos:R:3:forces:R:3 energy=-0.3830606965000998 pbc="F F F"
Yb       0.00000000       0.00000000       0.00000000       0.00000000       0.00000000       0.39283204
Yb       0.00000000       0.00000000       5.11818182       0.00000000       0.00000000      -0.39283204
2
Properties=species:S:1:pos:R:3:forces:R:3 energy=-0.36051163683215653 pbc="F F F"
Yb       0.00000000       0.00000000       0.00000000       0.00000000       0.00000000       0.37475643
Yb       0.00000000       0.00000000       5.17696970       0.00000000       0.00000000      -0.37475643
2
Properties=species:S:1:pos:R:3:forces:R:3 energy=-0.3389642017368879 pbc="F F F"
Yb       0.00000000       0.00000000       0.00000000       0.00000000       0.00000000       0.35838804
Yb       0.00000000       0.00000000       5.23575758       0.00000000       0.00000000      -0.35838804
2
Properties=species:S:1:pos:R:3:forces:R:3 energy=-0.31840700318419646 pbc="F F F"
Yb       0.00000000       0.00000000       0.00000000       0.00000000       0.00000000       0.34031886
Yb       0.00000000       0.00000000       5.29454545       0.00000000       0.00000000      -0.34031886
2
Properties=species:S:1:pos:R:3:forces:R:3 energy=-0.29905791395062786 pbc="F F F"
Yb       0.00000000       0.00000000       0.00000000       0.00000000       0.00000000       0.31695449
Yb       0.00000000       0.00000000       5.35333333       0.00000000       0.00000000      -0.31695449
2
Properties=species:S:1:pos:R:3:forces:R:3 energy=-0.28119627750047727 pbc="F F F"
Yb       0.00000000       0.00000000       0.00000000       0.00000000       0.00000000       0.29122588
Yb       0.00000000       0.00000000       5.41212121       0.00000000       0.00000000      -0.29122588
2
Properties=species:S:1:pos:R:3:forces:R:3 energy=-0.26462726709371676 pbc="F F F"
Yb       0.00000000       0.00000000       0.00000000       0.00000000       0.00000000       0.27462068
Yb       0.00000000       0.00000000       5.47090909       0.00000000       0.00000000      -0.27462068
2
Properties=species:S:1:pos:R:3:forces:R:3 energy=-0.2487667273701359 pbc="F F F"
Yb       0.00000000       0.00000000       0.00000000       0.00000000       0.00000000       0.26414818
Yb       0.00000000       0.00000000       5.52969697       0.00000000       0.00000000      -0.26414818
2
Properties=species:S:1:pos:R:3:forces:R:3 energy=-0.23386508978951548 pbc="F F F"
Yb       0.00000000       0.00000000       0.00000000       0.00000000       0.00000000       0.23976251
Yb       0.00000000       0.00000000       5.58848485       0.00000000       0.00000000      -0.23976251
2
Properties=species:S:1:pos:R:3:forces:R:3 energy=-0.22080902469087021 pbc="F F F"
Yb       0.00000000       0.00000000       0.00000000       0.00000000       0.00000000       0.20460296
Yb       0.00000000       0.00000000       5.64727273       0.00000000       0.00000000      -0.20460296
2
Properties=species:S:1:pos:R:3:forces:R:3 energy=-0.20953155239540455 pbc="F F F"
Yb       0.00000000       0.00000000       0.00000000       0.00000000       0.00000000       0.18358670
Yb       0.00000000       0.00000000       5.70606061       0.00000000       0.00000000      -0.18358670
2
Properties=species:S:1:pos:R:3:forces:R:3 energy=-0.19862551377476226 pbc="F F F"
Yb       0.00000000       0.00000000       0.00000000       0.00000000       0.00000000       0.18946026
Yb       0.00000000       0.00000000       5.76484848       0.00000000       0.00000000      -0.18946026
2
Properties=species:S:1:pos:R:3:forces:R:3 energy=-0.18755644760320972 pbc="F F F"
Yb       0.00000000       0.00000000       0.00000000       0.00000000       0.00000000       0.17983955
Yb       0.00000000       0.00000000       5.82363636       0.00000000       0.00000000      -0.17983955
2
Properties=species:S:1:pos:R:3:forces:R:3 energy=-0.17850638011025952 pbc="F F F"
Yb       0.00000000       0.00000000       0.00000000       0.00000000       0.00000000       0.12285396
Yb       0.00000000       0.00000000       5.88242424       0.00000000       0.00000000      -0.12285396
2
Properties=species:S:1:pos:R:3:forces:R:3 energy=-0.1732808006851323 pbc="F F F"
Yb       0.00000000       0.00000000       0.00000000       0.00000000       0.00000000       0.05751077
Yb       0.00000000       0.00000000       5.94121212       0.00000000       0.00000000      -0.05751077
2
Properties=species:S:1:pos:R:3:forces:R:3 energy=-0.1709597390467147 pbc="F F F"
Yb       0.00000000       0.00000000       0.00000000       0.00000000       0.00000000       0.03022114
Yb       0.00000000       0.00000000       6.00000000       0.00000000       0.00000000      -0.03022114
