2
Properties=species:S:1:pos:R:3:forces:R:3 energy=5464.150543297705 pbc="F F F"
Zn       0.00000000       0.00000000       0.00000000       0.00000000       0.00000000  -65919.46875000
Zn       0.00000000       0.00000000       0.18000000       0.00000000       0.00000000   65919.46875000
2
Properties=species:S:1:pos:R:3:forces:R:3 energy=3071.4950257195796 pbc="F F F"
Zn       0.00000000       0.00000000       0.00000000       0.00000000       0.00000000  -23911.66015625
Zn       0.00000000       0.00000000       0.23878788       0.00000000       0.00000000   23911.66015625
2
Properties=species:S:1:pos:R:3:forces:R:3 energy=2128.9139710352474 pbc="F F F"
Zn       0.00000000       0.00000000       0.00000000       0.00000000       0.00000000  -10435.51953125
Zn       0.00000000       0.00000000       0.29757576       0.00000000       0.00000000   10435.51953125
2
Properties=species:S:1:pos:R:3:forces:R:3 energy=1686.2932434993527 pbc="F F F"
Zn       0.00000000       0.00000000       0.00000000       0.00000000       0.00000000   -5402.89550781
Zn       0.00000000       0.00000000       0.35636364       0.00000000       0.00000000    5402.89550781
2
Properties=species:S:1:pos:R:3:forces:R:3 energy=1434.8136292478757 pbc="F F F"
Zn       0.00000000       0.00000000       0.00000000       0.00000000       0.00000000   -3469.91845703
Zn       0.00000000       0.00000000       0.41515152       0.00000000       0.00000000    3469.91845703
2
Properties=species:S:1:pos:R:3:forces:R:3 energy=1252.968780637238 pbc="F F F"
Zn       0.00000000       0.00000000       0.00000000       0.00000000       0.00000000   -2860.26928711
Zn       0.00000000       0.00000000       0.47393939       0.00000000       0.00000000    2860.26928711
2
Properties=species:S:1:pos:R:3:forces:R:3 energy=1086.9768373095412 pbc="F F F"
Zn       0.00000000       0.00000000       0.00000000       0.00000000       0.00000000   -2849.43676758
Zn       0.00000000       0.00000000       0.53272727       0.00000000       0.00000000    2849.43676758
2
Properties=species:S:1:pos:R:3:forces:R:3 energy=913.7985536688201 pbc="F F F"
Zn       0.00000000       0.00000000       0.00000000       0.00000000       0.00000000   -3052.05200195
Zn       0.00000000       0.00000000       0.59151515       0.00000000       0.00000000    3052.05200195
2
Properties=species:S:1:pos:R:3:forces:R:3 energy=730.272735892761 pbc="F F F"
Zn       0.00000000       0.00000000       0.00000000       0.00000000       0.00000000   -3138.27124023
Zn       0.00000000       0.00000000       0.65030303       0.00000000       0.00000000    3138.27124023
2
Properties=species:S:1:pos:R:3:forces:R:3 energy=555.0135197298871 pbc="F F F"
Zn       0.00000000       0.00000000       0.00000000       0.00000000       0.00000000   -2772.91528320
Zn       0.00000000       0.00000000       0.70909091       0.00000000       0.00000000    2772.91528320
2
Properties=species:S:1:pos:R:3:forces:R:3 energy=407.3341376274159 pbc="F F F"
Zn       0.00000000       0.00000000       0.00000000       0.00000000       0.00000000   -2247.32006836
Zn       0.00000000       0.00000000       0.76787879       0.00000000       0.00000000    2247.32006836
2
Properties=species:S:1:pos:R:3:forces:R:3 energy=290.9085092979278 pbc="F F F"
Zn       0.00000000       0.00000000       0.00000000       0.00000000       0.00000000   -1718.26977539
Zn       0.00000000       0.00000000       0.82666667       0.00000000       0.00000000    1718.26977539
2
Properties=species:S:1:pos:R:3:forces:R:3 energy=204.60514978458178 pbc="F F F"
Zn       0.00000000       0.00000000       0.00000000       0.00000000       0.00000000   -1229.75695801
Zn       0.00000000       0.00000000       0.88545455       0.00000000       0.00000000    1229.75695801
2
Properties=species:S:1:pos:R:3:forces:R:3 energy=144.23329375403566 pbc="F F F"
Zn       0.00000000       0.00000000       0.00000000       0.00000000       0.00000000    -843.37811279
Zn       0.00000000       0.00000000       0.94424242       0.00000000       0.00000000     843.37811279
2
Properties=species:S:1:pos:R:3:forces:R:3 energy=103.27049559410283 pbc="F F F"
Zn       0.00000000       0.00000000       0.00000000       0.00000000       0.00000000    -567.80126953
Zn       0.00000000       0.00000000       1.00303030       0.00000000       0.00000000     567.80126953
2
Properties=species:S:1:pos:R:3:forces:R:3 energy=75.5561184631164 pbc="F F F"
Zn       0.00000000       0.00000000       0.00000000       0.00000000       0.00000000    -390.32885742
Zn       0.00000000       0.00000000       1.06181818       0.00000000       0.00000000     390.32885742
2
Properties=species:S:1:pos:R:3:forces:R:3 energy=55.848249607978545 pbc="F F F"
Zn       0.00000000       0.00000000       0.00000000       0.00000000       0.00000000    -287.28591919
Zn       0.00000000       0.00000000       1.12060606       0.00000000       0.00000000     287.28591919
2
Properties=species:S:1:pos:R:3:forces:R:3 energy=41.75828591961035 pbc="F F F"
Zn       0.00000000       0.00000000       0.00000000       0.00000000       0.00000000    -192.04492188
Zn       0.00000000       0.00000000       1.17939394       0.00000000       0.00000000     192.04492188
2
Properties=species:S:1:pos:R:3:forces:R:3 energy=32.538325608220795 pbc="F F F"
Zn       0.00000000       0.00000000       0.00000000       0.00000000       0.00000000    -130.33412170
Zn       0.00000000       0.00000000       1.23818182       0.00000000       0.00000000     130.33412170
2
Properties=species:S:1:pos:R:3:forces:R:3 energy=25.746350297947277 pbc="F F F"
Zn       0.00000000       0.00000000       0.00000000       0.00000000       0.00000000    -103.50309753
Zn       0.00000000       0.00000000       1.29696970       0.00000000       0.00000000     103.50309753
2
Properties=species:S:1:pos:R:3:forces:R:3 energy=20.232846918391104 pbc="F F F"
Zn       0.00000000       0.00000000       0.00000000       0.00000000       0.00000000     -84.47540283
Zn       0.00000000       0.00000000       1.35575758       0.00000000       0.00000000      84.47540283
2
Properties=species:S:1:pos:R:3:forces:R:3 energy=15.777149724752128 pbc="F F F"
Zn       0.00000000       0.00000000       0.00000000       0.00000000       0.00000000     -67.47319794
Zn       0.00000000       0.00000000       1.41454545       0.00000000       0.00000000      67.47319794
2
Properties=species:S:1:pos:R:3:forces:R:3 energy=12.249370394728532 pbc="F F F"
Zn       0.00000000       0.00000000       0.00000000       0.00000000       0.00000000     -53.00536346
Zn       0.00000000       0.00000000       1.47333333       0.00000000       0.00000000      53.00536346
2
Properties=species:S:1:pos:R:3:forces:R:3 energy=9.490305633381242 pbc="F F F"
Zn       0.00000000       0.00000000       0.00000000       0.00000000       0.00000000     -41.31671524
Zn       0.00000000       0.00000000       1.53212121       0.00000000       0.00000000      41.31671524
2
Properties=species:S:1:pos:R:3:forces:R:3 energy=7.341109798982422 pbc="F F F"
Zn       0.00000000       0.00000000       0.00000000       0.00000000       0.00000000     -32.18796921
Zn       0.00000000       0.00000000       1.59090909       0.00000000       0.00000000      32.18796921
2
Properties=species:S:1:pos:R:3:forces:R:3 energy=5.665838212966583 pbc="F F F"
Zn       0.00000000       0.00000000       0.00000000       0.00000000       0.00000000     -25.10180664
Zn       0.00000000       0.00000000       1.64969697       0.00000000       0.00000000      25.10180664
2
Properties=species:S:1:pos:R:3:forces:R:3 energy=4.359009352100764 pbc="F F F"
Zn       0.00000000       0.00000000       0.00000000       0.00000000       0.00000000     -19.58857918
Zn       0.00000000       0.00000000       1.70848485       0.00000000       0.00000000      19.58857918
2
Properties=species:S:1:pos:R:3:forces:R:3 energy=3.3386770097897127 pbc="F F F"
Zn       0.00000000       0.00000000       0.00000000       0.00000000       0.00000000     -15.30271912
Zn       0.00000000       0.00000000       1.76727273       0.00000000       0.00000000      15.30271912
2
Properties=species:S:1:pos:R:3:forces:R:3 energy=2.54135966442045 pbc="F F F"
Zn       0.00000000       0.00000000       0.00000000       0.00000000       0.00000000     -11.95904446
Zn       0.00000000       0.00000000       1.82606061       0.00000000       0.00000000      11.95904446
2
Properties=species:S:1:pos:R:3:forces:R:3 energy=1.9184886569149695 pbc="F F F"
Zn       0.00000000       0.00000000       0.00000000       0.00000000       0.00000000      -9.33683300
Zn       0.00000000       0.00000000       1.88484848       0.00000000       0.00000000       9.33683300
2
Properties=species:S:1:pos:R:3:forces:R:3 energy=1.432585051939658 pbc="F F F"
Zn       0.00000000       0.00000000       0.00000000       0.00000000       0.00000000      -7.27676773
Zn       0.00000000       0.00000000       1.94363636       0.00000000       0.00000000       7.27676773
2
Properties=species:S:1:pos:R:3:forces:R:3 energy=1.0542088122480924 pbc="F F F"
Zn       0.00000000       0.00000000       0.00000000       0.00000000       0.00000000      -5.66185570
Zn       0.00000000       0.00000000       2.00242424       0.00000000       0.00000000       5.66185570
2
Properties=species:S:1:pos:R:3:forces:R:3 energy=0.7599636264635847 pbc="F F F"
Zn       0.00000000       0.00000000       0.00000000       0.00000000       0.00000000      -4.40096855
Zn       0.00000000       0.00000000       2.06121212       0.00000000       0.00000000       4.40096855
2
Properties=species:S:1:pos:R:3:forces:R:3 energy=0.5312811408598672 pbc="F F F"
Zn       0.00000000       0.00000000       0.00000000       0.00000000       0.00000000      -3.42022061
Zn       0.00000000       0.00000000       2.12000000       0.00000000       0.00000000       3.42022061
2
Properties=species:S:1:pos:R:3:forces:R:3 energy=0.3535171537127465 pbc="F F F"
Zn       0.00000000       0.00000000       0.00000000       0.00000000       0.00000000      -2.65988398
Zn       0.00000000       0.00000000       2.17878788       0.00000000       0.00000000       2.65988398
2
Properties=species:S:1:pos:R:3:forces:R:3 energy=0.2151531893554634 pbc="F F F"
Zn       0.00000000       0.00000000       0.00000000       0.00000000       0.00000000      -2.07290697
Zn       0.00000000       0.00000000       2.23757576       0.00000000       0.00000000       2.07290697
2
Properties=species:S:1:pos:R:3:forces:R:3 energy=0.10711361760942215 pbc="F F F"
Zn       0.00000000       0.00000000       0.00000000       0.00000000       0.00000000      -1.62295878
Zn       0.00000000       0.00000000       2.29636364       0.00000000       0.00000000       1.62295878
2
Properties=species:S:1:pos:R:3:forces:R:3 energy=0.02220481567275416 pbc="F F F"
Zn       0.00000000       0.00000000       0.00000000       0.00000000       0.00000000      -1.28180826
Zn       0.00000000       0.00000000       2.35515152       0.00000000       0.00000000       1.28180826
2
Properties=species:S:1:pos:R:3:forces:R:3 energy=-0.04528008323108669 pbc="F F F"
Zn       0.00000000       0.00000000       0.00000000       0.00000000       0.00000000      -1.02666974
Zn       0.00000000       0.00000000       2.41393939       0.00000000       0.00000000       1.02666974
2
Properties=species:S:1:pos:R:3:forces:R:3 energy=-0.09979834999758666 pbc="F F F"
Zn       0.00000000       0.00000000       0.00000000       0.00000000       0.00000000      -0.83738267
Zn       0.00000000       0.00000000       2.47272727       0.00000000       0.00000000       0.83738267
2
Properties=species:S:1:pos:R:3:forces:R:3 energy=-0.14461632663514132 pbc="F F F"
Zn       0.00000000       0.00000000       0.00000000       0.00000000       0.00000000      -0.69291031
Zn       0.00000000       0.00000000       2.53151515       0.00000000       0.00000000       0.69291031
2
Properties=species:S:1:pos:R:3:forces:R:3 energy=-0.181694032173849 pbc="F F F"
Zn       0.00000000       0.00000000       0.00000000       0.00000000       0.00000000      -0.57043695
Zn       0.00000000       0.00000000       2.59030303       0.00000000       0.00000000       0.57043695
2
Properties=species:S:1:pos:R:3:forces:R:3 energy=-0.21181700937889764 pbc="F F F"
Zn       0.00000000       0.00000000       0.00000000       0.00000000       0.00000000      -0.45546111
Zn       0.00000000       0.00000000       2.64909091       0.00000000       0.00000000       0.45546111
2
Properties=species:S:1:pos:R:3:forces:R:3 energy=-0.23547352829484394 pbc="F F F"
Zn       0.00000000       0.00000000       0.00000000       0.00000000       0.00000000      -0.35225591
Zn       0.00000000       0.00000000       2.70787879       0.00000000       0.00000000       0.35225591
2
Properties=species:S:1:pos:R:3:forces:R:3 energy=-0.2536412016745933 pbc="F F F"
Zn       0.00000000       0.00000000       0.00000000       0.00000000       0.00000000      -0.26939407
Zn       0.00000000       0.00000000       2.76666667       0.00000000       0.00000000       0.26939407
2
Properties=species:S:1:pos:R:3:forces:R:3 energy=-0.2675258695480281 pbc="F F F"
Zn       0.00000000       0.00000000       0.00000000       0.00000000       0.00000000      -0.20570822
Zn       0.00000000       0.00000000       2.82545455       0.00000000       0.00000000       0.20570822
2
Properties=species:S:1:pos:R:3:forces:R:3 energy=-0.27809750738129946 pbc="F F F"
Zn       0.00000000       0.00000000       0.00000000       0.00000000       0.00000000      -0.15588349
Zn       0.00000000       0.00000000       2.88424242       0.00000000       0.00000000       0.15588349
2
Properties=species:S:1:pos:R:3:forces:R:3 energy=-0.2860521775880242 pbc="F F F"
Zn       0.00000000       0.00000000       0.00000000       0.00000000       0.00000000      -0.11623850
Zn       0.00000000       0.00000000       2.94303030       0.00000000       0.00000000       0.11623850
2
Properties=species:S:1:pos:R:3:forces:R:3 energy=-0.29192541284587975 pbc="F F F"
Zn       0.00000000       0.00000000       0.00000000       0.00000000       0.00000000      -0.08482701
Zn       0.00000000       0.00000000       3.00181818       0.00000000       0.00000000       0.08482701
2
Properties=species:S:1:pos:R:3:forces:R:3 energy=-0.2961610291377144 pbc="F F F"
Zn       0.00000000       0.00000000       0.00000000       0.00000000       0.00000000      -0.06032180
Zn       0.00000000       0.00000000       3.06060606       0.00000000       0.00000000       0.06032180
2
Properties=species:S:1:pos:R:3:forces:R:3 energy=-0.299128924021727 pbc="F F F"
Zn       0.00000000       0.00000000       0.00000000       0.00000000       0.00000000      -0.04148535
Zn       0.00000000       0.00000000       3.11939394       0.00000000       0.00000000       0.04148535
2
Properties=species:S:1:pos:R:3:forces:R:3 energy=-0.30112569847568166 pbc="F F F"
Zn       0.00000000       0.00000000       0.00000000       0.00000000       0.00000000      -0.02709355
Zn       0.00000000       0.00000000       3.17818182       0.00000000       0.00000000       0.02709355
2
Properties=species:S:1:pos:R:3:forces:R:3 energy=-0.30237904677412325 pbc="F F F"
Zn       0.00000000       0.00000000       0.00000000       0.00000000       0.00000000      -0.01601889
Zn       0.00000000       0.00000000       3.23696970       0.00000000       0.00000000       0.01601889
2
Properties=species:S:1:pos:R:3:forces:R:3 energy=-0.30305562099175554 pbc="F F F"
Zn       0.00000000       0.00000000       0.00000000       0.00000000       0.00000000      -0.00732978
Zn       0.00000000       0.00000000       3.29575758       0.00000000       0.00000000       0.00732978
2
Properties=species:S:1:pos:R:3:forces:R:3 energy=-0.3032743523936062 pbc="F F F"
Zn       0.00000000       0.00000000       0.00000000       0.00000000       0.00000000      -0.00035483
Zn       0.00000000       0.00000000       3.35454545       0.00000000       0.00000000       0.00035483
2
Properties=species:S:1:pos:R:3:forces:R:3 energy=-0.30312290160903776 pbc="F F F"
Zn       0.00000000       0.00000000       0.00000000       0.00000000       0.00000000       0.00530581
Zn       0.00000000       0.00000000       3.41333333       0.00000000       0.00000000      -0.00530581
2
Properties=species:S:1:pos:R:3:forces:R:3 energy=-0.3026729465151859 pbc="F F F"
Zn       0.00000000       0.00000000       0.00000000       0.00000000       0.00000000       0.00981891
Zn       0.00000000       0.00000000       3.47212121       0.00000000       0.00000000      -0.00981891
2
Properties=species:S:1:pos:R:3:forces:R:3 energy=-0.30199095096278344 pbc="F F F"
Zn       0.00000000       0.00000000       0.00000000       0.00000000       0.00000000       0.01319214
Zn       0.00000000       0.00000000       3.53090909       0.00000000       0.00000000      -0.01319214
2
Properties=species:S:1:pos:R:3:forces:R:3 energy=-0.301145563963656 pbc="F F F"
Zn       0.00000000       0.00000000       0.00000000       0.00000000       0.00000000       0.01536264
Zn       0.00000000       0.00000000       3.58969697       0.00000000       0.00000000      -0.01536264
2
Properties=species:S:1:pos:R:3:forces:R:3 energy=-0.30020905712181717 pbc="F F F"
Zn       0.00000000       0.00000000       0.00000000       0.00000000       0.00000000       0.01627881
Zn       0.00000000       0.00000000       3.64848485       0.00000000       0.00000000      -0.01627881
2
Properties=species:S:1:pos:R:3:forces:R:3 energy=-0.2992557374828142 pbc="F F F"
Zn       0.00000000       0.00000000       0.00000000       0.00000000       0.00000000       0.01595861
Zn       0.00000000       0.00000000       3.70727273       0.00000000       0.00000000      -0.01595861
2
Properties=species:S:1:pos:R:3:forces:R:3 energy=-0.29835499408914556 pbc="F F F"
Zn       0.00000000       0.00000000       0.00000000       0.00000000       0.00000000       0.01451470
Zn       0.00000000       0.00000000       3.76606061       0.00000000       0.00000000      -0.01451470
2
Properties=species:S:1:pos:R:3:forces:R:3 energy=-0.29756726199544997 pbc="F F F"
Zn       0.00000000       0.00000000       0.00000000       0.00000000       0.00000000       0.01214717
Zn       0.00000000       0.00000000       3.82484848       0.00000000       0.00000000      -0.01214717
2
Properties=species:S:1:pos:R:3:forces:R:3 energy=-0.29693984489965064 pbc="F F F"
Zn       0.00000000       0.00000000       0.00000000       0.00000000       0.00000000       0.00911237
Zn       0.00000000       0.00000000       3.88363636       0.00000000       0.00000000      -0.00911237
2
Properties=species:S:1:pos:R:3:forces:R:3 energy=-0.2965036705655845 pbc="F F F"
Zn       0.00000000       0.00000000       0.00000000       0.00000000       0.00000000       0.00568032
Zn       0.00000000       0.00000000       3.94242424       0.00000000       0.00000000      -0.00568032
2
Properties=species:S:1:pos:R:3:forces:R:3 energy=-0.296274881849425 pbc="F F F"
Zn       0.00000000       0.00000000       0.00000000       0.00000000       0.00000000       0.00209455
Zn       0.00000000       0.00000000       4.00121212       0.00000000       0.00000000      -0.00209455
2
Properties=species:S:1:pos:R:3:forces:R:3 energy=-0.29625668256777127 pbc="F F F"
Zn       0.00000000       0.00000000       0.00000000       0.00000000       0.00000000      -0.00145650
Zn       0.00000000       0.00000000       4.06000000       0.00000000       0.00000000       0.00145650
2
Properties=species:S:1:pos:R:3:forces:R:3 energy=-0.2964430414451094 pbc="F F F"
Zn       0.00000000       0.00000000       0.00000000       0.00000000       0.00000000      -0.00485187
Zn       0.00000000       0.00000000       4.11878788       0.00000000       0.00000000       0.00485187
2
Properties=species:S:1:pos:R:3:forces:R:3 energy=-0.29682289236537 pbc="F F F"
Zn       0.00000000       0.00000000       0.00000000       0.00000000       0.00000000      -0.00803304
Zn       0.00000000       0.00000000       4.17757576       0.00000000       0.00000000       0.00803304
2
Properties=species:S:1:pos:R:3:forces:R:3 energy=-0.2973831724568839 pbc="F F F"
Zn       0.00000000       0.00000000       0.00000000       0.00000000       0.00000000      -0.01098900
Zn       0.00000000       0.00000000       4.23636364       0.00000000       0.00000000       0.01098900
2
Properties=species:S:1:pos:R:3:forces:R:3 energy=-0.2981109350134201 pbc="F F F"
Zn       0.00000000       0.00000000       0.00000000       0.00000000       0.00000000      -0.01373542
Zn       0.00000000       0.00000000       4.29515152       0.00000000       0.00000000       0.01373542
2
Properties=species:S:1:pos:R:3:forces:R:3 energy=-0.2989943869477725 pbc="F F F"
Zn       0.00000000       0.00000000       0.00000000       0.00000000       0.00000000      -0.01629635
Zn       0.00000000       0.00000000       4.35393939       0.00000000       0.00000000       0.01629635
2
Properties=species:S:1:pos:R:3:forces:R:3 energy=-0.3000235192242457 pbc="F F F"
Zn       0.00000000       0.00000000       0.00000000       0.00000000       0.00000000      -0.01868708
Zn       0.00000000       0.00000000       4.41272727       0.00000000       0.00000000       0.01868708
2
Properties=species:S:1:pos:R:3:forces:R:3 energy=-0.30118823693991253 pbc="F F F"
Zn       0.00000000       0.00000000       0.00000000       0.00000000       0.00000000      -0.02090530
Zn       0.00000000       0.00000000       4.47151515       0.00000000       0.00000000       0.02090530
2
Properties=species:S:1:pos:R:3:forces:R:3 energy=-0.3024776505284917 pbc="F F F"
Zn       0.00000000       0.00000000       0.00000000       0.00000000       0.00000000      -0.02292316
Zn       0.00000000       0.00000000       4.53030303       0.00000000       0.00000000       0.02292316
2
Properties=species:S:1:pos:R:3:forces:R:3 energy=-0.30387844109236156 pbc="F F F"
Zn       0.00000000       0.00000000       0.00000000       0.00000000       0.00000000      -0.02468508
Zn       0.00000000       0.00000000       4.58909091       0.00000000       0.00000000       0.02468508
2
Properties=species:S:1:pos:R:3:forces:R:3 energy=-0.30537336711861884 pbc="F F F"
Zn       0.00000000       0.00000000       0.00000000       0.00000000       0.00000000      -0.02611193
Zn       0.00000000       0.00000000       4.64787879       0.00000000       0.00000000       0.02611193
2
Properties=species:S:1:pos:R:3:forces:R:3 energy=-0.30694028041846366 pbc="F F F"
Zn       0.00000000       0.00000000       0.00000000       0.00000000       0.00000000      -0.02711237
Zn       0.00000000       0.00000000       4.70666667       0.00000000       0.00000000       0.02711237
2
Properties=species:S:1:pos:R:3:forces:R:3 energy=-0.3085512386851603 pbc="F F F"
Zn       0.00000000       0.00000000       0.00000000       0.00000000       0.00000000      -0.02760797
Zn       0.00000000       0.00000000       4.76545455       0.00000000       0.00000000       0.02760797
2
Properties=species:S:1:pos:R:3:forces:R:3 energy=-0.31017588611974356 pbc="F F F"
Zn       0.00000000       0.00000000       0.00000000       0.00000000       0.00000000      -0.02756932
Zn       0.00000000       0.00000000       4.82424242       0.00000000       0.00000000       0.02756932
2
Properties=species:S:1:pos:R:3:forces:R:3 energy=-0.3117831838416163 pbc="F F F"
Zn       0.00000000       0.00000000       0.00000000       0.00000000       0.00000000      -0.02705566
Zn       0.00000000       0.00000000       4.88303030       0.00000000       0.00000000       0.02705566
2
Properties=species:S:1:pos:R:3:forces:R:3 energy=-0.31335103920650287 pbc="F F F"
Zn       0.00000000       0.00000000       0.00000000       0.00000000       0.00000000      -0.02624980
Zn       0.00000000       0.00000000       4.94181818       0.00000000       0.00000000       0.02624980
2
Properties=species:S:1:pos:R:3:forces:R:3 energy=-0.3148699818715334 pbc="F F F"
Zn       0.00000000       0.00000000       0.00000000       0.00000000       0.00000000      -0.02546293
Zn       0.00000000       0.00000000       5.00060606       0.00000000       0.00000000       0.02546293
2
Properties=species:S:1:pos:R:3:forces:R:3 energy=-0.31635304637095185 pbc="F F F"
Zn       0.00000000       0.00000000       0.00000000       0.00000000       0.00000000      -0.02508709
Zn       0.00000000       0.00000000       5.05939394       0.00000000       0.00000000       0.02508709
2
Properties=species:S:1:pos:R:3:forces:R:3 energy=-0.31783468497731027 pbc="F F F"
Zn       0.00000000       0.00000000       0.00000000       0.00000000       0.00000000      -0.02547178
Zn       0.00000000       0.00000000       5.11818182       0.00000000       0.00000000       0.02547178
2
Properties=species:S:1:pos:R:3:forces:R:3 energy=-0.31936512514311227 pbc="F F F"
Zn       0.00000000       0.00000000       0.00000000       0.00000000       0.00000000      -0.02672666
Zn       0.00000000       0.00000000       5.17696970       0.00000000       0.00000000       0.02672666
2
Properties=species:S:1:pos:R:3:forces:R:3 energy=-0.32098742229655053 pbc="F F F"
Zn       0.00000000       0.00000000       0.00000000       0.00000000       0.00000000      -0.02849029
Zn       0.00000000       0.00000000       5.23575758       0.00000000       0.00000000       0.02849029
2
Properties=species:S:1:pos:R:3:forces:R:3 energy=-0.3227062285915555 pbc="F F F"
Zn       0.00000000       0.00000000       0.00000000       0.00000000       0.00000000      -0.02980147
Zn       0.00000000       0.00000000       5.29454545       0.00000000       0.00000000       0.02980147
2
Properties=species:S:1:pos:R:3:forces:R:3 energy=-0.32445847146635215 pbc="F F F"
Zn       0.00000000       0.00000000       0.00000000       0.00000000       0.00000000      -0.02946581
Zn       0.00000000       0.00000000       5.35333333       0.00000000       0.00000000       0.02946581
2
Properties=species:S:1:pos:R:3:forces:R:3 energy=-0.32613730549918113 pbc="F F F"
Zn       0.00000000       0.00000000       0.00000000       0.00000000       0.00000000      -0.02754656
Zn       0.00000000       0.00000000       5.41212121       0.00000000       0.00000000       0.02754656
2
Properties=species:S:1:pos:R:3:forces:R:3 energy=-0.32771974812751803 pbc="F F F"
Zn       0.00000000       0.00000000       0.00000000       0.00000000       0.00000000      -0.02672633
Zn       0.00000000       0.00000000       5.47090909       0.00000000       0.00000000       0.02672633
2
Properties=species:S:1:pos:R:3:forces:R:3 energy=-0.3293212701671084 pbc="F F F"
Zn       0.00000000       0.00000000       0.00000000       0.00000000       0.00000000      -0.02770424
Zn       0.00000000       0.00000000       5.52969697       0.00000000       0.00000000       0.02770424
2
Properties=species:S:1:pos:R:3:forces:R:3 energy=-0.3309117704681343 pbc="F F F"
Zn       0.00000000       0.00000000       0.00000000       0.00000000       0.00000000      -0.02558596
Zn       0.00000000       0.00000000       5.58848485       0.00000000       0.00000000       0.02558596
2
Properties=species:S:1:pos:R:3:forces:R:3 energy=-0.3322555345310254 pbc="F F F"
Zn       0.00000000       0.00000000       0.00000000       0.00000000       0.00000000      -0.01994762
Zn       0.00000000       0.00000000       5.64727273       0.00000000       0.00000000       0.01994762
2
Properties=species:S:1:pos:R:3:forces:R:3 energy=-0.33329174451504856 pbc="F F F"
Zn       0.00000000       0.00000000       0.00000000       0.00000000       0.00000000      -0.01609843
Zn       0.00000000       0.00000000       5.70606061       0.00000000       0.00000000       0.01609843
2
Properties=species:S:1:pos:R:3:forces:R:3 energy=-0.33426670689104143 pbc="F F F"
Zn       0.00000000       0.00000000       0.00000000       0.00000000       0.00000000      -0.01762065
Zn       0.00000000       0.00000000       5.76484848       0.00000000       0.00000000       0.01762065
2
Properties=species:S:1:pos:R:3:forces:R:3 energy=-0.3353236548599791 pbc="F F F"
Zn       0.00000000       0.00000000       0.00000000       0.00000000       0.00000000      -0.01706137
Zn       0.00000000       0.00000000       5.82363636       0.00000000       0.00000000       0.01706137
2
Properties=species:S:1:pos:R:3:forces:R:3 energy=-0.336093918510549 pbc="F F F"
Zn       0.00000000       0.00000000       0.00000000       0.00000000       0.00000000      -0.00825843
Zn       0.00000000       0.00000000       5.88242424       0.00000000       0.00000000       0.00825843
2
Properties=species:S:1:pos:R:3:forces:R:3 energy=-0.33626924811831616 pbc="F F F"
Zn       0.00000000       0.00000000       0.00000000       0.00000000       0.00000000       0.00183531
Zn       0.00000000       0.00000000       5.94121212       0.00000000       0.00000000      -0.00183531
2
Properties=species:S:1:pos:R:3:forces:R:3 energy=-0.3360060079971128 pbc="F F F"
Zn       0.00000000       0.00000000       0.00000000       0.00000000       0.00000000       0.00571529
Zn       0.00000000       0.00000000       6.00000000       0.00000000       0.00000000      -0.00571529
