2
Properties=species:S:1:pos:R:3:forces:R:3 energy=19915.961759285605 pbc="F F F"
Ac       0.00000000       0.00000000       0.00000000       0.00000000       0.00000000 -358017.12500000
Ac       0.00000000       0.00000000       0.18000000       0.00000000       0.00000000  358017.12500000
2
Properties=species:S:1:pos:R:3:forces:R:3 energy=7515.433927254356 pbc="F F F"
Ac       0.00000000       0.00000000       0.00000000       0.00000000       0.00000000 -115810.60156250
Ac       0.00000000       0.00000000       0.23878788       0.00000000       0.00000000  115810.60156250
2
Properties=species:S:1:pos:R:3:forces:R:3 energy=3196.3118569418552 pbc="F F F"
Ac       0.00000000       0.00000000       0.00000000       0.00000000       0.00000000  -44021.36328125
Ac       0.00000000       0.00000000       0.29757576       0.00000000       0.00000000   44021.36328125
2
Properties=species:S:1:pos:R:3:forces:R:3 energy=1476.8057534262305 pbc="F F F"
Ac       0.00000000       0.00000000       0.00000000       0.00000000       0.00000000  -18521.61328125
Ac       0.00000000       0.00000000       0.35636364       0.00000000       0.00000000   18521.61328125
2
Properties=species:S:1:pos:R:3:forces:R:3 energy=728.4107338949804 pbc="F F F"
Ac       0.00000000       0.00000000       0.00000000       0.00000000       0.00000000   -8401.29199219
Ac       0.00000000       0.00000000       0.41515152       0.00000000       0.00000000    8401.29199219
2
Properties=species:S:1:pos:R:3:forces:R:3 energy=379.26424953265166 pbc="F F F"
Ac       0.00000000       0.00000000       0.00000000       0.00000000       0.00000000   -4056.72705078
Ac       0.00000000       0.00000000       0.47393939       0.00000000       0.00000000    4056.72705078
2
Properties=species:S:1:pos:R:3:forces:R:3 energy=206.45263455508857 pbc="F F F"
Ac       0.00000000       0.00000000       0.00000000       0.00000000       0.00000000   -2068.81347656
Ac       0.00000000       0.00000000       0.53272727       0.00000000       0.00000000    2068.81347656
2
Properties=species:S:1:pos:R:3:forces:R:3 energy=116.37727903797469 pbc="F F F"
Ac       0.00000000       0.00000000       0.00000000       0.00000000       0.00000000   -1106.55871582
Ac       0.00000000       0.00000000       0.59151515       0.00000000       0.00000000    1106.55871582
2
Properties=species:S:1:pos:R:3:forces:R:3 energy=67.28055359945009 pbc="F F F"
Ac       0.00000000       0.00000000       0.00000000       0.00000000       0.00000000    -616.40960693
Ac       0.00000000       0.00000000       0.65030303       0.00000000       0.00000000     616.40960693
2
Properties=species:S:1:pos:R:3:forces:R:3 energy=39.497545074695786 pbc="F F F"
Ac       0.00000000       0.00000000       0.00000000       0.00000000       0.00000000    -355.04266357
Ac       0.00000000       0.00000000       0.70909091       0.00000000       0.00000000     355.04266357
2
Properties=species:S:1:pos:R:3:forces:R:3 energy=23.292341128042462 pbc="F F F"
Ac       0.00000000       0.00000000       0.00000000       0.00000000       0.00000000    -209.96459961
Ac       0.00000000       0.00000000       0.76787879       0.00000000       0.00000000     209.96459961
2
Properties=species:S:1:pos:R:3:forces:R:3 energy=13.617348668072438 pbc="F F F"
Ac       0.00000000       0.00000000       0.00000000       0.00000000       0.00000000    -126.62410736
Ac       0.00000000       0.00000000       0.82666667       0.00000000       0.00000000     126.62410736
2
Properties=species:S:1:pos:R:3:forces:R:3 energy=7.745019108213839 pbc="F F F"
Ac       0.00000000       0.00000000       0.00000000       0.00000000       0.00000000     -77.34128571
Ac       0.00000000       0.00000000       0.88545455       0.00000000       0.00000000      77.34128571
2
Properties=species:S:1:pos:R:3:forces:R:3 energy=4.147635824480237 pbc="F F F"
Ac       0.00000000       0.00000000       0.00000000       0.00000000       0.00000000     -47.46723557
Ac       0.00000000       0.00000000       0.94424242       0.00000000       0.00000000      47.46723557
2
Properties=species:S:1:pos:R:3:forces:R:3 energy=1.9436403985977069 pbc="F F F"
Ac       0.00000000       0.00000000       0.00000000       0.00000000       0.00000000     -28.94984436
Ac       0.00000000       0.00000000       1.00303030       0.00000000       0.00000000      28.94984436
2
Properties=species:S:1:pos:R:3:forces:R:3 energy=0.6121186716120361 pbc="F F F"
Ac       0.00000000       0.00000000       0.00000000       0.00000000       0.00000000     -17.21513367
Ac       0.00000000       0.00000000       1.06181818       0.00000000       0.00000000      17.21513367
2
Properties=species:S:1:pos:R:3:forces:R:3 energy=-0.16041753367096354 pbc="F F F"
Ac       0.00000000       0.00000000       0.00000000       0.00000000       0.00000000      -9.59677124
Ac       0.00000000       0.00000000       1.12060606       0.00000000       0.00000000       9.59677124
2
Properties=species:S:1:pos:R:3:forces:R:3 energy=-0.5656982992863566 pbc="F F F"
Ac       0.00000000       0.00000000       0.00000000       0.00000000       0.00000000      -4.52424097
Ac       0.00000000       0.00000000       1.17939394       0.00000000       0.00000000       4.52424097
2
Properties=species:S:1:pos:R:3:forces:R:3 energy=-0.7243827940172878 pbc="F F F"
Ac       0.00000000       0.00000000       0.00000000       0.00000000       0.00000000      -1.10074282
Ac       0.00000000       0.00000000       1.23818182       0.00000000       0.00000000       1.10074282
2
Properties=species:S:1:pos:R:3:forces:R:3 energy=-0.7184343274882031 pbc="F F F"
Ac       0.00000000       0.00000000       0.00000000       0.00000000       0.00000000       1.12323415
Ac       0.00000000       0.00000000       1.29696970       0.00000000       0.00000000      -1.12323415
2
Properties=species:S:1:pos:R:3:forces:R:3 energy=-0.6124548619568524 pbc="F F F"
Ac       0.00000000       0.00000000       0.00000000       0.00000000       0.00000000       2.31667137
Ac       0.00000000       0.00000000       1.35575758       0.00000000       0.00000000      -2.31667137
2
Properties=species:S:1:pos:R:3:forces:R:3 energy=-0.46469608974610493 pbc="F F F"
Ac       0.00000000       0.00000000       0.00000000       0.00000000       0.00000000       2.56283307
Ac       0.00000000       0.00000000       1.41454545       0.00000000       0.00000000      -2.56283307
2
Properties=species:S:1:pos:R:3:forces:R:3 energy=-0.32600793432623254 pbc="F F F"
Ac       0.00000000       0.00000000       0.00000000       0.00000000       0.00000000       2.05643797
Ac       0.00000000       0.00000000       1.47333333       0.00000000       0.00000000      -2.05643797
2
Properties=species:S:1:pos:R:3:forces:R:3 energy=-0.23049905675938898 pbc="F F F"
Ac       0.00000000       0.00000000       0.00000000       0.00000000       0.00000000       1.16418874
Ac       0.00000000       0.00000000       1.53212121       0.00000000       0.00000000      -1.16418874
2
Properties=species:S:1:pos:R:3:forces:R:3 energy=-0.18871753380831977 pbc="F F F"
Ac       0.00000000       0.00000000       0.00000000       0.00000000       0.00000000       0.28699094
Ac       0.00000000       0.00000000       1.59090909       0.00000000       0.00000000      -0.28699094
2
Properties=species:S:1:pos:R:3:forces:R:3 energy=-0.19149644895490875 pbc="F F F"
Ac       0.00000000       0.00000000       0.00000000       0.00000000       0.00000000      -0.32963654
Ac       0.00000000       0.00000000       1.64969697       0.00000000       0.00000000       0.32963654
2
Properties=species:S:1:pos:R:3:forces:R:3 energy=-0.22164709218245435 pbc="F F F"
Ac       0.00000000       0.00000000       0.00000000       0.00000000       0.00000000      -0.65308577
Ac       0.00000000       0.00000000       1.70848485       0.00000000       0.00000000       0.65308577
2
Properties=species:S:1:pos:R:3:forces:R:3 energy=-0.2643265925958481 pbc="F F F"
Ac       0.00000000       0.00000000       0.00000000       0.00000000       0.00000000      -0.77441603
Ac       0.00000000       0.00000000       1.76727273       0.00000000       0.00000000       0.77441603
2
Properties=species:S:1:pos:R:3:forces:R:3 energy=-0.31066623571478513 pbc="F F F"
Ac       0.00000000       0.00000000       0.00000000       0.00000000       0.00000000      -0.79000890
Ac       0.00000000       0.00000000       1.82606061       0.00000000       0.00000000       0.79000890
2
Properties=species:S:1:pos:R:3:forces:R:3 energy=-0.35607606074622955 pbc="F F F"
Ac       0.00000000       0.00000000       0.00000000       0.00000000       0.00000000      -0.74619162
Ac       0.00000000       0.00000000       1.88484848       0.00000000       0.00000000       0.74619162
2
Properties=species:S:1:pos:R:3:forces:R:3 energy=-0.3973426552854012 pbc="F F F"
Ac       0.00000000       0.00000000       0.00000000       0.00000000       0.00000000      -0.64813328
Ac       0.00000000       0.00000000       1.94363636       0.00000000       0.00000000       0.64813328
2
Properties=species:S:1:pos:R:3:forces:R:3 energy=-0.43113106859707756 pbc="F F F"
Ac       0.00000000       0.00000000       0.00000000       0.00000000       0.00000000      -0.49218756
Ac       0.00000000       0.00000000       2.00242424       0.00000000       0.00000000       0.49218756
2
Properties=species:S:1:pos:R:3:forces:R:3 energy=-0.4544256184739775 pbc="F F F"
Ac       0.00000000       0.00000000       0.00000000       0.00000000       0.00000000      -0.29773793
Ac       0.00000000       0.00000000       2.06121212       0.00000000       0.00000000       0.29773793
2
Properties=species:S:1:pos:R:3:forces:R:3 energy=-0.4665990575606481 pbc="F F F"
Ac       0.00000000       0.00000000       0.00000000       0.00000000       0.00000000      -0.12775269
Ac       0.00000000       0.00000000       2.12000000       0.00000000       0.00000000       0.12775269
2
Properties=species:S:1:pos:R:3:forces:R:3 energy=-0.4715455426977864 pbc="F F F"
Ac       0.00000000       0.00000000       0.00000000       0.00000000       0.00000000      -0.06265064
Ac       0.00000000       0.00000000       2.17878788       0.00000000       0.00000000       0.06265064
2
Properties=species:S:1:pos:R:3:forces:R:3 energy=-0.4764927270231539 pbc="F F F"
Ac       0.00000000       0.00000000       0.00000000       0.00000000       0.00000000      -0.12346143
Ac       0.00000000       0.00000000       2.23757576       0.00000000       0.00000000       0.12346143
2
Properties=species:S:1:pos:R:3:forces:R:3 energy=-0.48743711777333476 pbc="F F F"
Ac       0.00000000       0.00000000       0.00000000       0.00000000       0.00000000      -0.25445011
Ac       0.00000000       0.00000000       2.29636364       0.00000000       0.00000000       0.25445011
2
Properties=species:S:1:pos:R:3:forces:R:3 energy=-0.5065273758173028 pbc="F F F"
Ac       0.00000000       0.00000000       0.00000000       0.00000000       0.00000000      -0.39285979
Ac       0.00000000       0.00000000       2.35515152       0.00000000       0.00000000       0.39285979
2
Properties=species:S:1:pos:R:3:forces:R:3 energy=-0.533212638567779 pbc="F F F"
Ac       0.00000000       0.00000000       0.00000000       0.00000000       0.00000000      -0.51088327
Ac       0.00000000       0.00000000       2.41393939       0.00000000       0.00000000       0.51088327
2
Properties=species:S:1:pos:R:3:forces:R:3 energy=-0.5661285554937916 pbc="F F F"
Ac       0.00000000       0.00000000       0.00000000       0.00000000       0.00000000      -0.60531294
Ac       0.00000000       0.00000000       2.47272727       0.00000000       0.00000000       0.60531294
2
Properties=species:S:1:pos:R:3:forces:R:3 energy=-0.604003903862085 pbc="F F F"
Ac       0.00000000       0.00000000       0.00000000       0.00000000       0.00000000      -0.68040466
Ac       0.00000000       0.00000000       2.53151515       0.00000000       0.00000000       0.68040466
2
Properties=species:S:1:pos:R:3:forces:R:3 energy=-0.6458356274039407 pbc="F F F"
Ac       0.00000000       0.00000000       0.00000000       0.00000000       0.00000000      -0.74050987
Ac       0.00000000       0.00000000       2.59030303       0.00000000       0.00000000       0.74050987
2
Properties=species:S:1:pos:R:3:forces:R:3 energy=-0.6908349485486075 pbc="F F F"
Ac       0.00000000       0.00000000       0.00000000       0.00000000       0.00000000      -0.78856575
Ac       0.00000000       0.00000000       2.64909091       0.00000000       0.00000000       0.78856575
2
Properties=species:S:1:pos:R:3:forces:R:3 energy=-0.7383482141629869 pbc="F F F"
Ac       0.00000000       0.00000000       0.00000000       0.00000000       0.00000000      -0.82624018
Ac       0.00000000       0.00000000       2.70787879       0.00000000       0.00000000       0.82624018
2
Properties=species:S:1:pos:R:3:forces:R:3 energy=-0.7877925434181079 pbc="F F F"
Ac       0.00000000       0.00000000       0.00000000       0.00000000       0.00000000      -0.85430479
Ac       0.00000000       0.00000000       2.76666667       0.00000000       0.00000000       0.85430479
2
Properties=species:S:1:pos:R:3:forces:R:3 energy=-0.8386094642949822 pbc="F F F"
Ac       0.00000000       0.00000000       0.00000000       0.00000000       0.00000000      -0.87294060
Ac       0.00000000       0.00000000       2.82545455       0.00000000       0.00000000       0.87294060
2
Properties=species:S:1:pos:R:3:forces:R:3 energy=-0.8902419442055863 pbc="F F F"
Ac       0.00000000       0.00000000       0.00000000       0.00000000       0.00000000      -0.88200569
Ac       0.00000000       0.00000000       2.88424242       0.00000000       0.00000000       0.88200569
2
Properties=species:S:1:pos:R:3:forces:R:3 energy=-0.9421173810783219 pbc="F F F"
Ac       0.00000000       0.00000000       0.00000000       0.00000000       0.00000000      -0.88111913
Ac       0.00000000       0.00000000       2.94303030       0.00000000       0.00000000       0.88111913
2
Properties=species:S:1:pos:R:3:forces:R:3 energy=-0.9936303142592324 pbc="F F F"
Ac       0.00000000       0.00000000       0.00000000       0.00000000       0.00000000      -0.86949474
Ac       0.00000000       0.00000000       3.00181818       0.00000000       0.00000000       0.86949474
2
Properties=species:S:1:pos:R:3:forces:R:3 energy=-1.0441108481374555 pbc="F F F"
Ac       0.00000000       0.00000000       0.00000000       0.00000000       0.00000000      -0.84570175
Ac       0.00000000       0.00000000       3.06060606       0.00000000       0.00000000       0.84570175
2
Properties=species:S:1:pos:R:3:forces:R:3 energy=-1.0927855144043932 pbc="F F F"
Ac       0.00000000       0.00000000       0.00000000       0.00000000       0.00000000      -0.80769438
Ac       0.00000000       0.00000000       3.11939394       0.00000000       0.00000000       0.80769438
2
Properties=species:S:1:pos:R:3:forces:R:3 energy=-1.1387583332797522 pbc="F F F"
Ac       0.00000000       0.00000000       0.00000000       0.00000000       0.00000000      -0.75353521
Ac       0.00000000       0.00000000       3.17818182       0.00000000       0.00000000       0.75353521
2
Properties=species:S:1:pos:R:3:forces:R:3 energy=-1.1810544211048437 pbc="F F F"
Ac       0.00000000       0.00000000       0.00000000       0.00000000       0.00000000      -0.68270528
Ac       0.00000000       0.00000000       3.23696970       0.00000000       0.00000000       0.68270528
2
Properties=species:S:1:pos:R:3:forces:R:3 energy=-1.2187416612615538 pbc="F F F"
Ac       0.00000000       0.00000000       0.00000000       0.00000000       0.00000000      -0.59736699
Ac       0.00000000       0.00000000       3.29575758       0.00000000       0.00000000       0.59736699
2
Properties=species:S:1:pos:R:3:forces:R:3 energy=-1.251105692154007 pbc="F F F"
Ac       0.00000000       0.00000000       0.00000000       0.00000000       0.00000000      -0.50266856
Ac       0.00000000       0.00000000       3.35454545       0.00000000       0.00000000       0.50266856
2
Properties=species:S:1:pos:R:3:forces:R:3 energy=-1.277797875951285 pbc="F F F"
Ac       0.00000000       0.00000000       0.00000000       0.00000000       0.00000000      -0.40563884
Ac       0.00000000       0.00000000       3.41333333       0.00000000       0.00000000       0.40563884
2
Properties=species:S:1:pos:R:3:forces:R:3 energy=-1.2988911143733983 pbc="F F F"
Ac       0.00000000       0.00000000       0.00000000       0.00000000       0.00000000      -0.31323174
Ac       0.00000000       0.00000000       3.47212121       0.00000000       0.00000000       0.31323174
2
Properties=species:S:1:pos:R:3:forces:R:3 energy=-1.3148195386302737 pbc="F F F"
Ac       0.00000000       0.00000000       0.00000000       0.00000000       0.00000000      -0.23059249
Ac       0.00000000       0.00000000       3.53090909       0.00000000       0.00000000       0.23059249
2
Properties=species:S:1:pos:R:3:forces:R:3 energy=-1.3262474782376517 pbc="F F F"
Ac       0.00000000       0.00000000       0.00000000       0.00000000       0.00000000      -0.16034459
Ac       0.00000000       0.00000000       3.58969697       0.00000000       0.00000000       0.16034459
2
Properties=species:S:1:pos:R:3:forces:R:3 energy=-1.3339229222899611 pbc="F F F"
Ac       0.00000000       0.00000000       0.00000000       0.00000000       0.00000000      -0.10283127
Ac       0.00000000       0.00000000       3.64848485       0.00000000       0.00000000       0.10283127
2
Properties=species:S:1:pos:R:3:forces:R:3 energy=-1.3385625181738634 pbc="F F F"
Ac       0.00000000       0.00000000       0.00000000       0.00000000       0.00000000      -0.05675229
Ac       0.00000000       0.00000000       3.70727273       0.00000000       0.00000000       0.05675229
2
Properties=species:S:1:pos:R:3:forces:R:3 energy=-1.3407728019063403 pbc="F F F"
Ac       0.00000000       0.00000000       0.00000000       0.00000000       0.00000000      -0.01969467
Ac       0.00000000       0.00000000       3.76606061       0.00000000       0.00000000       0.01969467
2
Properties=species:S:1:pos:R:3:forces:R:3 energy=-1.340991871945931 pbc="F F F"
Ac       0.00000000       0.00000000       0.00000000       0.00000000       0.00000000       0.01159189
Ac       0.00000000       0.00000000       3.82484848       0.00000000       0.00000000      -0.01159189
2
Properties=species:S:1:pos:R:3:forces:R:3 energy=-1.3394479930589878 pbc="F F F"
Ac       0.00000000       0.00000000       0.00000000       0.00000000       0.00000000       0.04092322
Ac       0.00000000       0.00000000       3.88363636       0.00000000       0.00000000      -0.04092322
2
Properties=species:S:1:pos:R:3:forces:R:3 energy=-1.3361431581090073 pbc="F F F"
Ac       0.00000000       0.00000000       0.00000000       0.00000000       0.00000000       0.07210349
Ac       0.00000000       0.00000000       3.94242424       0.00000000       0.00000000      -0.07210349
2
Properties=species:S:1:pos:R:3:forces:R:3 energy=-1.3308761437987637 pbc="F F F"
Ac       0.00000000       0.00000000       0.00000000       0.00000000       0.00000000       0.10804044
Ac       0.00000000       0.00000000       4.00121212       0.00000000       0.00000000      -0.10804044
2
Properties=species:S:1:pos:R:3:forces:R:3 energy=-1.323322416076385 pbc="F F F"
Ac       0.00000000       0.00000000       0.00000000       0.00000000       0.00000000       0.14992923
Ac       0.00000000       0.00000000       4.06000000       0.00000000       0.00000000      -0.14992923
2
Properties=species:S:1:pos:R:3:forces:R:3 energy=-1.3131458700853167 pbc="F F F"
Ac       0.00000000       0.00000000       0.00000000       0.00000000       0.00000000       0.19697958
Ac       0.00000000       0.00000000       4.11878788       0.00000000       0.00000000      -0.19697958
2
Properties=species:S:1:pos:R:3:forces:R:3 energy=-1.3001061893849568 pbc="F F F"
Ac       0.00000000       0.00000000       0.00000000       0.00000000       0.00000000       0.24686223
Ac       0.00000000       0.00000000       4.17757576       0.00000000       0.00000000      -0.24686223
2
Properties=species:S:1:pos:R:3:forces:R:3 energy=-1.2841237263144403 pbc="F F F"
Ac       0.00000000       0.00000000       0.00000000       0.00000000       0.00000000       0.29660732
Ac       0.00000000       0.00000000       4.23636364       0.00000000       0.00000000      -0.29660732
2
Properties=species:S:1:pos:R:3:forces:R:3 energy=-1.2652884375216633 pbc="F F F"
Ac       0.00000000       0.00000000       0.00000000       0.00000000       0.00000000       0.34351590
Ac       0.00000000       0.00000000       4.29515152       0.00000000       0.00000000      -0.34351590
2
Properties=species:S:1:pos:R:3:forces:R:3 energy=-1.24382742102266 pbc="F F F"
Ac       0.00000000       0.00000000       0.00000000       0.00000000       0.00000000       0.38574171
Ac       0.00000000       0.00000000       4.35393939       0.00000000       0.00000000      -0.38574171
2
Properties=species:S:1:pos:R:3:forces:R:3 energy=-1.2200436679693507 pbc="F F F"
Ac       0.00000000       0.00000000       0.00000000       0.00000000       0.00000000       0.42245001
Ac       0.00000000       0.00000000       4.41272727       0.00000000       0.00000000      -0.42245001
2
Properties=species:S:1:pos:R:3:forces:R:3 energy=-1.194264759473476 pbc="F F F"
Ac       0.00000000       0.00000000       0.00000000       0.00000000       0.00000000       0.45368469
Ac       0.00000000       0.00000000       4.47151515       0.00000000       0.00000000      -0.45368469
2
Properties=species:S:1:pos:R:3:forces:R:3 energy=-1.1667957662659372 pbc="F F F"
Ac       0.00000000       0.00000000       0.00000000       0.00000000       0.00000000       0.48009211
Ac       0.00000000       0.00000000       4.53030303       0.00000000       0.00000000      -0.48009211
2
Properties=species:S:1:pos:R:3:forces:R:3 energy=-1.1378940523551415 pbc="F F F"
Ac       0.00000000       0.00000000       0.00000000       0.00000000       0.00000000       0.50261915
Ac       0.00000000       0.00000000       4.58909091       0.00000000       0.00000000      -0.50261915
2
Properties=species:S:1:pos:R:3:forces:R:3 energy=-1.1077573540980479 pbc="F F F"
Ac       0.00000000       0.00000000       0.00000000       0.00000000       0.00000000       0.52224672
Ac       0.00000000       0.00000000       4.64787879       0.00000000       0.00000000      -0.52224672
2
Properties=species:S:1:pos:R:3:forces:R:3 energy=-1.0765314476085643 pbc="F F F"
Ac       0.00000000       0.00000000       0.00000000       0.00000000       0.00000000       0.53972834
Ac       0.00000000       0.00000000       4.70666667       0.00000000       0.00000000      -0.53972834
2
Properties=species:S:1:pos:R:3:forces:R:3 energy=-1.0443332727758734 pbc="F F F"
Ac       0.00000000       0.00000000       0.00000000       0.00000000       0.00000000       0.55539632
Ac       0.00000000       0.00000000       4.76545455       0.00000000       0.00000000      -0.55539632
2
Properties=species:S:1:pos:R:3:forces:R:3 energy=-1.0112693447640253 pbc="F F F"
Ac       0.00000000       0.00000000       0.00000000       0.00000000       0.00000000       0.56904250
Ac       0.00000000       0.00000000       4.82424242       0.00000000       0.00000000      -0.56904250
2
Properties=species:S:1:pos:R:3:forces:R:3 energy=-0.9774840882111564 pbc="F F F"
Ac       0.00000000       0.00000000       0.00000000       0.00000000       0.00000000       0.57989478
Ac       0.00000000       0.00000000       4.88303030       0.00000000       0.00000000      -0.57989478
2
Properties=species:S:1:pos:R:3:forces:R:3 energy=-0.9431669949545564 pbc="F F F"
Ac       0.00000000       0.00000000       0.00000000       0.00000000       0.00000000       0.58672071
Ac       0.00000000       0.00000000       4.94181818       0.00000000       0.00000000      -0.58672071
2
Properties=species:S:1:pos:R:3:forces:R:3 energy=-0.9086041742968595 pbc="F F F"
Ac       0.00000000       0.00000000       0.00000000       0.00000000       0.00000000       0.58804727
Ac       0.00000000       0.00000000       5.00060606       0.00000000       0.00000000      -0.58804727
2
Properties=species:S:1:pos:R:3:forces:R:3 energy=-0.8741621684690892 pbc="F F F"
Ac       0.00000000       0.00000000       0.00000000       0.00000000       0.00000000       0.58241630
Ac       0.00000000       0.00000000       5.05939394       0.00000000       0.00000000      -0.58241630
2
Properties=species:S:1:pos:R:3:forces:R:3 energy=-0.8402834696110119 pbc="F F F"
Ac       0.00000000       0.00000000       0.00000000       0.00000000       0.00000000       0.56875080
Ac       0.00000000       0.00000000       5.11818182       0.00000000       0.00000000      -0.56875080
2
Properties=species:S:1:pos:R:3:forces:R:3 energy=-0.8074612321466165 pbc="F F F"
Ac       0.00000000       0.00000000       0.00000000       0.00000000       0.00000000       0.54652601
Ac       0.00000000       0.00000000       5.17696970       0.00000000       0.00000000      -0.54652601
2
Properties=species:S:1:pos:R:3:forces:R:3 energy=-0.7761928813635474 pbc="F F F"
Ac       0.00000000       0.00000000       0.00000000       0.00000000       0.00000000       0.51594573
Ac       0.00000000       0.00000000       5.23575758       0.00000000       0.00000000      -0.51594573
2
Properties=species:S:1:pos:R:3:forces:R:3 energy=-0.7469478203669238 pbc="F F F"
Ac       0.00000000       0.00000000       0.00000000       0.00000000       0.00000000       0.47787559
Ac       0.00000000       0.00000000       5.29454545       0.00000000       0.00000000      -0.47787559
2
Properties=species:S:1:pos:R:3:forces:R:3 energy=-0.7201233353134951 pbc="F F F"
Ac       0.00000000       0.00000000       0.00000000       0.00000000       0.00000000       0.43376353
Ac       0.00000000       0.00000000       5.35333333       0.00000000       0.00000000      -0.43376353
2
Properties=species:S:1:pos:R:3:forces:R:3 energy=-0.6960275003819272 pbc="F F F"
Ac       0.00000000       0.00000000       0.00000000       0.00000000       0.00000000       0.38539916
Ac       0.00000000       0.00000000       5.41212121       0.00000000       0.00000000      -0.38539916
2
Properties=species:S:1:pos:R:3:forces:R:3 energy=-0.6748546307465962 pbc="F F F"
Ac       0.00000000       0.00000000       0.00000000       0.00000000       0.00000000       0.33472726
Ac       0.00000000       0.00000000       5.47090909       0.00000000       0.00000000      -0.33472726
2
Properties=species:S:1:pos:R:3:forces:R:3 energy=-0.6566796975799619 pbc="F F F"
Ac       0.00000000       0.00000000       0.00000000       0.00000000       0.00000000       0.28364176
Ac       0.00000000       0.00000000       5.52969697       0.00000000       0.00000000      -0.28364176
2
Properties=species:S:1:pos:R:3:forces:R:3 energy=-0.6414773508537407 pbc="F F F"
Ac       0.00000000       0.00000000       0.00000000       0.00000000       0.00000000       0.23393448
Ac       0.00000000       0.00000000       5.58848485       0.00000000       0.00000000      -0.23393448
2
Properties=species:S:1:pos:R:3:forces:R:3 energy=-0.6291175529447021 pbc="F F F"
Ac       0.00000000       0.00000000       0.00000000       0.00000000       0.00000000       0.18715781
Ac       0.00000000       0.00000000       5.64727273       0.00000000       0.00000000      -0.18715781
2
Properties=species:S:1:pos:R:3:forces:R:3 energy=-0.6193896755821875 pbc="F F F"
Ac       0.00000000       0.00000000       0.00000000       0.00000000       0.00000000       0.14470497
Ac       0.00000000       0.00000000       5.70606061       0.00000000       0.00000000      -0.14470497
2
Properties=species:S:1:pos:R:3:forces:R:3 energy=-0.6119885967107421 pbc="F F F"
Ac       0.00000000       0.00000000       0.00000000       0.00000000       0.00000000       0.10774514
Ac       0.00000000       0.00000000       5.76484848       0.00000000       0.00000000      -0.10774514
2
Properties=species:S:1:pos:R:3:forces:R:3 energy=-0.6065872583497399 pbc="F F F"
Ac       0.00000000       0.00000000       0.00000000       0.00000000       0.00000000       0.07736091
Ac       0.00000000       0.00000000       5.82363636       0.00000000       0.00000000      -0.07736091
2
Properties=species:S:1:pos:R:3:forces:R:3 energy=-0.6027540674749552 pbc="F F F"
Ac       0.00000000       0.00000000       0.00000000       0.00000000       0.00000000       0.05450622
Ac       0.00000000       0.00000000       5.88242424       0.00000000       0.00000000      -0.05450622
2
Properties=species:S:1:pos:R:3:forces:R:3 energy=-0.600012752921158 pbc="F F F"
Ac       0.00000000       0.00000000       0.00000000       0.00000000       0.00000000       0.04009798
Ac       0.00000000       0.00000000       5.94121212       0.00000000       0.00000000      -0.04009798
2
Properties=species:S:1:pos:R:3:forces:R:3 energy=-0.5978550879299225 pbc="F F F"
Ac       0.00000000       0.00000000       0.00000000       0.00000000       0.00000000       0.03497398
Ac       0.00000000       0.00000000       6.00000000       0.00000000       0.00000000      -0.03497398
