2
Properties=species:S:1:pos:R:3:forces:R:3 energy=40340.5977206799 pbc="F F F"
Ag       0.00000000       0.00000000       0.00000000       0.00000000       0.00000000 -965637.12500000
Ag       0.00000000       0.00000000       0.10000000       0.00000000       0.00000000  965637.12500000
2
Properties=species:S:1:pos:R:3:forces:R:3 energy=11886.484439429898 pbc="F F F"
Ag       0.00000000       0.00000000       0.00000000       0.00000000       0.00000000 -211847.03125000
Ag       0.00000000       0.00000000       0.15959596       0.00000000       0.00000000  211847.03125000
2
Properties=species:S:1:pos:R:3:forces:R:3 energy=4560.869693336147 pbc="F F F"
Ag       0.00000000       0.00000000       0.00000000       0.00000000       0.00000000  -66668.96875000
Ag       0.00000000       0.00000000       0.21919192       0.00000000       0.00000000   66668.96875000
2
Properties=species:S:1:pos:R:3:forces:R:3 energy=2033.4137607189596 pbc="F F F"
Ag       0.00000000       0.00000000       0.00000000       0.00000000       0.00000000  -25652.34960938
Ag       0.00000000       0.00000000       0.27878788       0.00000000       0.00000000   25652.34960938
2
Properties=species:S:1:pos:R:3:forces:R:3 energy=1004.7410922619283 pbc="F F F"
Ag       0.00000000       0.00000000       0.00000000       0.00000000       0.00000000  -11136.44921875
Ag       0.00000000       0.00000000       0.33838384       0.00000000       0.00000000   11136.44921875
2
Properties=species:S:1:pos:R:3:forces:R:3 energy=541.555545393264 pbc="F F F"
Ag       0.00000000       0.00000000       0.00000000       0.00000000       0.00000000   -5228.36914062
Ag       0.00000000       0.00000000       0.39797980       0.00000000       0.00000000    5228.36914062
2
Properties=species:S:1:pos:R:3:forces:R:3 energy=318.471499995779 pbc="F F F"
Ag       0.00000000       0.00000000       0.00000000       0.00000000       0.00000000   -2592.25634766
Ag       0.00000000       0.00000000       0.45757576       0.00000000       0.00000000    2592.25634766
2
Properties=species:S:1:pos:R:3:forces:R:3 energy=205.87517128577002 pbc="F F F"
Ag       0.00000000       0.00000000       0.00000000       0.00000000       0.00000000   -1333.61694336
Ag       0.00000000       0.00000000       0.51717172       0.00000000       0.00000000    1333.61694336
2
Properties=species:S:1:pos:R:3:forces:R:3 energy=147.405078556682 pbc="F F F"
Ag       0.00000000       0.00000000       0.00000000       0.00000000       0.00000000    -697.48168945
Ag       0.00000000       0.00000000       0.57676768       0.00000000       0.00000000     697.48168945
2
Properties=species:S:1:pos:R:3:forces:R:3 energy=116.92196247647178 pbc="F F F"
Ag       0.00000000       0.00000000       0.00000000       0.00000000       0.00000000    -359.72598267
Ag       0.00000000       0.00000000       0.63636364       0.00000000       0.00000000     359.72598267
2
Properties=species:S:1:pos:R:3:forces:R:3 energy=101.53296265788417 pbc="F F F"
Ag       0.00000000       0.00000000       0.00000000       0.00000000       0.00000000    -175.23242188
Ag       0.00000000       0.00000000       0.69595960       0.00000000       0.00000000     175.23242188
2
Properties=species:S:1:pos:R:3:forces:R:3 energy=94.31667713288363 pbc="F F F"
Ag       0.00000000       0.00000000       0.00000000       0.00000000       0.00000000     -78.38966370
Ag       0.00000000       0.00000000       0.75555556       0.00000000       0.00000000      78.38966370
2
Properties=species:S:1:pos:R:3:forces:R:3 energy=91.05010635722662 pbc="F F F"
Ag       0.00000000       0.00000000       0.00000000       0.00000000       0.00000000     -39.31664276
Ag       0.00000000       0.00000000       0.81515152       0.00000000       0.00000000      39.31664276
2
Properties=species:S:1:pos:R:3:forces:R:3 energy=88.8105208704039 pbc="F F F"
Ag       0.00000000       0.00000000       0.00000000       0.00000000       0.00000000     -41.52626038
Ag       0.00000000       0.00000000       0.87474747       0.00000000       0.00000000      41.52626038
2
Properties=species:S:1:pos:R:3:forces:R:3 energy=85.57933551168685 pbc="F F F"
Ag       0.00000000       0.00000000       0.00000000       0.00000000       0.00000000     -69.88619995
Ag       0.00000000       0.00000000       0.93434343       0.00000000       0.00000000      69.88619995
2
Properties=species:S:1:pos:R:3:forces:R:3 energy=80.29510318187027 pbc="F F F"
Ag       0.00000000       0.00000000       0.00000000       0.00000000       0.00000000    -107.68569183
Ag       0.00000000       0.00000000       0.99393939       0.00000000       0.00000000     107.68569183
2
Properties=species:S:1:pos:R:3:forces:R:3 energy=72.84008713424001 pbc="F F F"
Ag       0.00000000       0.00000000       0.00000000       0.00000000       0.00000000    -140.86248779
Ag       0.00000000       0.00000000       1.05353535       0.00000000       0.00000000     140.86248779
2
Properties=species:S:1:pos:R:3:forces:R:3 energy=63.76415315797657 pbc="F F F"
Ag       0.00000000       0.00000000       0.00000000       0.00000000       0.00000000    -161.18655396
Ag       0.00000000       0.00000000       1.11313131       0.00000000       0.00000000     161.18655396
2
Properties=species:S:1:pos:R:3:forces:R:3 energy=53.9408632072455 pbc="F F F"
Ag       0.00000000       0.00000000       0.00000000       0.00000000       0.00000000    -165.97373962
Ag       0.00000000       0.00000000       1.17272727       0.00000000       0.00000000     165.97373962
2
Properties=species:S:1:pos:R:3:forces:R:3 energy=44.22547633140313 pbc="F F F"
Ag       0.00000000       0.00000000       0.00000000       0.00000000       0.00000000    -158.65484619
Ag       0.00000000       0.00000000       1.23232323       0.00000000       0.00000000     158.65484619
2
Properties=species:S:1:pos:R:3:forces:R:3 energy=35.11647441081844 pbc="F F F"
Ag       0.00000000       0.00000000       0.00000000       0.00000000       0.00000000    -146.79519653
Ag       0.00000000       0.00000000       1.29191919       0.00000000       0.00000000     146.79519653
2
Properties=species:S:1:pos:R:3:forces:R:3 energy=26.794060072174307 pbc="F F F"
Ag       0.00000000       0.00000000       0.00000000       0.00000000       0.00000000    -131.02482605
Ag       0.00000000       0.00000000       1.35151515       0.00000000       0.00000000     131.02482605
2
Properties=species:S:1:pos:R:3:forces:R:3 energy=19.77923722234893 pbc="F F F"
Ag       0.00000000       0.00000000       0.00000000       0.00000000       0.00000000    -102.19522858
Ag       0.00000000       0.00000000       1.41111111       0.00000000       0.00000000     102.19522858
2
Properties=species:S:1:pos:R:3:forces:R:3 energy=14.666783161818236 pbc="F F F"
Ag       0.00000000       0.00000000       0.00000000       0.00000000       0.00000000     -70.70886993
Ag       0.00000000       0.00000000       1.47070707       0.00000000       0.00000000      70.70886993
2
Properties=species:S:1:pos:R:3:forces:R:3 energy=11.115091991199987 pbc="F F F"
Ag       0.00000000       0.00000000       0.00000000       0.00000000       0.00000000     -50.44082642
Ag       0.00000000       0.00000000       1.53030303       0.00000000       0.00000000      50.44082642
2
Properties=species:S:1:pos:R:3:forces:R:3 energy=8.471176490092027 pbc="F F F"
Ag       0.00000000       0.00000000       0.00000000       0.00000000       0.00000000     -39.32479477
Ag       0.00000000       0.00000000       1.58989899       0.00000000       0.00000000      39.32479477
2
Properties=species:S:1:pos:R:3:forces:R:3 energy=6.365431904548838 pbc="F F F"
Ag       0.00000000       0.00000000       0.00000000       0.00000000       0.00000000     -31.48254776
Ag       0.00000000       0.00000000       1.64949495       0.00000000       0.00000000      31.48254776
2
Properties=species:S:1:pos:R:3:forces:R:3 energy=4.710553501389837 pbc="F F F"
Ag       0.00000000       0.00000000       0.00000000       0.00000000       0.00000000     -24.20666885
Ag       0.00000000       0.00000000       1.70909091       0.00000000       0.00000000      24.20666885
2
Properties=species:S:1:pos:R:3:forces:R:3 energy=3.4459750223541974 pbc="F F F"
Ag       0.00000000       0.00000000       0.00000000       0.00000000       0.00000000     -18.60475731
Ag       0.00000000       0.00000000       1.76868687       0.00000000       0.00000000      18.60475731
2
Properties=species:S:1:pos:R:3:forces:R:3 energy=2.4493089995470774 pbc="F F F"
Ag       0.00000000       0.00000000       0.00000000       0.00000000       0.00000000     -15.15918446
Ag       0.00000000       0.00000000       1.82828283       0.00000000       0.00000000      15.15918446
2
Properties=species:S:1:pos:R:3:forces:R:3 energy=1.6107634340419703 pbc="F F F"
Ag       0.00000000       0.00000000       0.00000000       0.00000000       0.00000000     -13.14136505
Ag       0.00000000       0.00000000       1.88787879       0.00000000       0.00000000      13.14136505
2
Properties=species:S:1:pos:R:3:forces:R:3 energy=0.8716551018515645 pbc="F F F"
Ag       0.00000000       0.00000000       0.00000000       0.00000000       0.00000000     -11.70578098
Ag       0.00000000       0.00000000       1.94747475       0.00000000       0.00000000      11.70578098
2
Properties=species:S:1:pos:R:3:forces:R:3 energy=0.21418565357266542 pbc="F F F"
Ag       0.00000000       0.00000000       0.00000000       0.00000000       0.00000000     -10.34887123
Ag       0.00000000       0.00000000       2.00707071       0.00000000       0.00000000      10.34887123
2
Properties=species:S:1:pos:R:3:forces:R:3 energy=-0.3598005951536243 pbc="F F F"
Ag       0.00000000       0.00000000       0.00000000       0.00000000       0.00000000      -8.89556408
Ag       0.00000000       0.00000000       2.06666667       0.00000000       0.00000000       8.89556408
2
Properties=species:S:1:pos:R:3:forces:R:3 energy=-0.8445702695824985 pbc="F F F"
Ag       0.00000000       0.00000000       0.00000000       0.00000000       0.00000000      -7.36786270
Ag       0.00000000       0.00000000       2.12626263       0.00000000       0.00000000       7.36786270
2
Properties=species:S:1:pos:R:3:forces:R:3 energy=-1.2384374590440426 pbc="F F F"
Ag       0.00000000       0.00000000       0.00000000       0.00000000       0.00000000      -5.86236000
Ag       0.00000000       0.00000000       2.18585859       0.00000000       0.00000000       5.86236000
2
Properties=species:S:1:pos:R:3:forces:R:3 energy=-1.5456013180542163 pbc="F F F"
Ag       0.00000000       0.00000000       0.00000000       0.00000000       0.00000000      -4.47068882
Ag       0.00000000       0.00000000       2.24545455       0.00000000       0.00000000       4.47068882
2
Properties=species:S:1:pos:R:3:forces:R:3 energy=-1.7747205347479627 pbc="F F F"
Ag       0.00000000       0.00000000       0.00000000       0.00000000       0.00000000      -3.24965739
Ag       0.00000000       0.00000000       2.30505051       0.00000000       0.00000000       3.24965739
2
Properties=species:S:1:pos:R:3:forces:R:3 energy=-1.9368167108647343 pbc="F F F"
Ag       0.00000000       0.00000000       0.00000000       0.00000000       0.00000000      -2.22326589
Ag       0.00000000       0.00000000       2.36464646       0.00000000       0.00000000       2.22326589
2
Properties=species:S:1:pos:R:3:forces:R:3 energy=-2.0435948471626473 pbc="F F F"
Ag       0.00000000       0.00000000       0.00000000       0.00000000       0.00000000      -1.39160013
Ag       0.00000000       0.00000000       2.42424242       0.00000000       0.00000000       1.39160013
2
Properties=species:S:1:pos:R:3:forces:R:3 energy=-2.106208131110315 pbc="F F F"
Ag       0.00000000       0.00000000       0.00000000       0.00000000       0.00000000      -0.73696756
Ag       0.00000000       0.00000000       2.48383838       0.00000000       0.00000000       0.73696756
2
Properties=species:S:1:pos:R:3:forces:R:3 energy=-2.1343753860069454 pbc="F F F"
Ag       0.00000000       0.00000000       0.00000000       0.00000000       0.00000000      -0.23024818
Ag       0.00000000       0.00000000       2.54343434       0.00000000       0.00000000       0.23024818
2
Properties=species:S:1:pos:R:3:forces:R:3 energy=-2.1359592551751505 pbc="F F F"
Ag       0.00000000       0.00000000       0.00000000       0.00000000       0.00000000       0.16012645
Ag       0.00000000       0.00000000       2.60303030       0.00000000       0.00000000      -0.16012645
2
Properties=species:S:1:pos:R:3:forces:R:3 energy=-2.117076610130474 pbc="F F F"
Ag       0.00000000       0.00000000       0.00000000       0.00000000       0.00000000       0.46022895
Ag       0.00000000       0.00000000       2.66262626       0.00000000       0.00000000      -0.46022895
2
Properties=species:S:1:pos:R:3:forces:R:3 energy=-2.0825456349834135 pbc="F F F"
Ag       0.00000000       0.00000000       0.00000000       0.00000000       0.00000000       0.68752056
Ag       0.00000000       0.00000000       2.72222222       0.00000000       0.00000000      -0.68752056
2
Properties=species:S:1:pos:R:3:forces:R:3 energy=-2.0363656389200235 pbc="F F F"
Ag       0.00000000       0.00000000       0.00000000       0.00000000       0.00000000       0.85251069
Ag       0.00000000       0.00000000       2.78181818       0.00000000       0.00000000      -0.85251069
2
Properties=species:S:1:pos:R:3:forces:R:3 energy=-1.9820305299351815 pbc="F F F"
Ag       0.00000000       0.00000000       0.00000000       0.00000000       0.00000000       0.96221995
Ag       0.00000000       0.00000000       2.84141414       0.00000000       0.00000000      -0.96221995
2
Properties=species:S:1:pos:R:3:forces:R:3 energy=-1.9226480662990857 pbc="F F F"
Ag       0.00000000       0.00000000       0.00000000       0.00000000       0.00000000       1.02307749
Ag       0.00000000       0.00000000       2.90101010       0.00000000       0.00000000      -1.02307749
2
Properties=species:S:1:pos:R:3:forces:R:3 energy=-1.8609034225736392 pbc="F F F"
Ag       0.00000000       0.00000000       0.00000000       0.00000000       0.00000000       1.04305017
Ag       0.00000000       0.00000000       2.96060606       0.00000000       0.00000000      -1.04305017
2
Properties=species:S:1:pos:R:3:forces:R:3 energy=-1.798903641770692 pbc="F F F"
Ag       0.00000000       0.00000000       0.00000000       0.00000000       0.00000000       1.03401840
Ag       0.00000000       0.00000000       3.02020202       0.00000000       0.00000000      -1.03401840
2
Properties=species:S:1:pos:R:3:forces:R:3 energy=-1.7379285253510983 pbc="F F F"
Ag       0.00000000       0.00000000       0.00000000       0.00000000       0.00000000       1.01113808
Ag       0.00000000       0.00000000       3.07979798       0.00000000       0.00000000      -1.01113808
2
Properties=species:S:1:pos:R:3:forces:R:3 energy=-1.6784489289109539 pbc="F F F"
Ag       0.00000000       0.00000000       0.00000000       0.00000000       0.00000000       0.98461729
Ag       0.00000000       0.00000000       3.13939394       0.00000000       0.00000000      -0.98461729
2
Properties=species:S:1:pos:R:3:forces:R:3 energy=-1.620630875949872 pbc="F F F"
Ag       0.00000000       0.00000000       0.00000000       0.00000000       0.00000000       0.95493114
Ag       0.00000000       0.00000000       3.19898990       0.00000000       0.00000000      -0.95493114
2
Properties=species:S:1:pos:R:3:forces:R:3 energy=-1.564738820693508 pbc="F F F"
Ag       0.00000000       0.00000000       0.00000000       0.00000000       0.00000000       0.91982710
Ag       0.00000000       0.00000000       3.25858586       0.00000000       0.00000000      -0.91982710
2
Properties=species:S:1:pos:R:3:forces:R:3 energy=-1.5110958250711566 pbc="F F F"
Ag       0.00000000       0.00000000       0.00000000       0.00000000       0.00000000       0.87969917
Ag       0.00000000       0.00000000       3.31818182       0.00000000       0.00000000      -0.87969917
2
Properties=species:S:1:pos:R:3:forces:R:3 energy=-1.4599459954182736 pbc="F F F"
Ag       0.00000000       0.00000000       0.00000000       0.00000000       0.00000000       0.83653337
Ag       0.00000000       0.00000000       3.37777778       0.00000000       0.00000000      -0.83653337
2
Properties=species:S:1:pos:R:3:forces:R:3 energy=-1.411411771953264 pbc="F F F"
Ag       0.00000000       0.00000000       0.00000000       0.00000000       0.00000000       0.79215664
Ag       0.00000000       0.00000000       3.43737374       0.00000000       0.00000000      -0.79215664
2
Properties=species:S:1:pos:R:3:forces:R:3 energy=-1.36552245337777 pbc="F F F"
Ag       0.00000000       0.00000000       0.00000000       0.00000000       0.00000000       0.74799430
Ag       0.00000000       0.00000000       3.49696970       0.00000000       0.00000000      -0.74799430
2
Properties=species:S:1:pos:R:3:forces:R:3 energy=-1.3222239166196084 pbc="F F F"
Ag       0.00000000       0.00000000       0.00000000       0.00000000       0.00000000       0.70547843
Ag       0.00000000       0.00000000       3.55656566       0.00000000       0.00000000      -0.70547843
2
Properties=species:S:1:pos:R:3:forces:R:3 energy=-1.2813707659648785 pbc="F F F"
Ag       0.00000000       0.00000000       0.00000000       0.00000000       0.00000000       0.66622055
Ag       0.00000000       0.00000000       3.61616162       0.00000000       0.00000000      -0.66622055
2
Properties=species:S:1:pos:R:3:forces:R:3 energy=-1.2427217883392878 pbc="F F F"
Ag       0.00000000       0.00000000       0.00000000       0.00000000       0.00000000       0.63167614
Ag       0.00000000       0.00000000       3.67575758       0.00000000       0.00000000      -0.63167614
2
Properties=species:S:1:pos:R:3:forces:R:3 energy=-1.205971511468597 pbc="F F F"
Ag       0.00000000       0.00000000       0.00000000       0.00000000       0.00000000       0.60255319
Ag       0.00000000       0.00000000       3.73535354       0.00000000       0.00000000      -0.60255319
2
Properties=species:S:1:pos:R:3:forces:R:3 energy=-1.1708031151567169 pbc="F F F"
Ag       0.00000000       0.00000000       0.00000000       0.00000000       0.00000000       0.57838696
Ag       0.00000000       0.00000000       3.79494949       0.00000000       0.00000000      -0.57838696
2
Properties=species:S:1:pos:R:3:forces:R:3 energy=-1.1369656912569281 pbc="F F F"
Ag       0.00000000       0.00000000       0.00000000       0.00000000       0.00000000       0.55756128
Ag       0.00000000       0.00000000       3.85454545       0.00000000       0.00000000      -0.55756128
2
Properties=species:S:1:pos:R:3:forces:R:3 energy=-1.1043254203112427 pbc="F F F"
Ag       0.00000000       0.00000000       0.00000000       0.00000000       0.00000000       0.53780091
Ag       0.00000000       0.00000000       3.91414141       0.00000000       0.00000000      -0.53780091
2
Properties=species:S:1:pos:R:3:forces:R:3 energy=-1.0728877126401895 pbc="F F F"
Ag       0.00000000       0.00000000       0.00000000       0.00000000       0.00000000       0.51685482
Ag       0.00000000       0.00000000       3.97373737       0.00000000       0.00000000      -0.51685482
2
Properties=species:S:1:pos:R:3:forces:R:3 energy=-1.0427769661062978 pbc="F F F"
Ag       0.00000000       0.00000000       0.00000000       0.00000000       0.00000000       0.49310938
Ag       0.00000000       0.00000000       4.03333333       0.00000000       0.00000000      -0.49310938
2
Properties=species:S:1:pos:R:3:forces:R:3 energy=-1.0141825133728348 pbc="F F F"
Ag       0.00000000       0.00000000       0.00000000       0.00000000       0.00000000       0.46590236
Ag       0.00000000       0.00000000       4.09292929       0.00000000       0.00000000      -0.46590236
2
Properties=species:S:1:pos:R:3:forces:R:3 energy=-0.9873080757491411 pbc="F F F"
Ag       0.00000000       0.00000000       0.00000000       0.00000000       0.00000000       0.43553054
Ag       0.00000000       0.00000000       4.15252525       0.00000000       0.00000000      -0.43553054
2
Properties=species:S:1:pos:R:3:forces:R:3 energy=-0.962314271466895 pbc="F F F"
Ag       0.00000000       0.00000000       0.00000000       0.00000000       0.00000000       0.40300715
Ag       0.00000000       0.00000000       4.21212121       0.00000000       0.00000000      -0.40300715
2
Properties=species:S:1:pos:R:3:forces:R:3 energy=-0.9392875959222509 pbc="F F F"
Ag       0.00000000       0.00000000       0.00000000       0.00000000       0.00000000       0.36973706
Ag       0.00000000       0.00000000       4.27171717       0.00000000       0.00000000      -0.36973706
2
Properties=species:S:1:pos:R:3:forces:R:3 energy=-0.9182301037366496 pbc="F F F"
Ag       0.00000000       0.00000000       0.00000000       0.00000000       0.00000000       0.33718482
Ag       0.00000000       0.00000000       4.33131313       0.00000000       0.00000000      -0.33718482
2
Properties=species:S:1:pos:R:3:forces:R:3 energy=-0.8990583056108845 pbc="F F F"
Ag       0.00000000       0.00000000       0.00000000       0.00000000       0.00000000       0.30662745
Ag       0.00000000       0.00000000       4.39090909       0.00000000       0.00000000      -0.30662745
2
Properties=species:S:1:pos:R:3:forces:R:3 energy=-0.8816234333203495 pbc="F F F"
Ag       0.00000000       0.00000000       0.00000000       0.00000000       0.00000000       0.27902356
Ag       0.00000000       0.00000000       4.45050505       0.00000000       0.00000000      -0.27902356
2
Properties=species:S:1:pos:R:3:forces:R:3 energy=-0.865730060538834 pbc="F F F"
Ag       0.00000000       0.00000000       0.00000000       0.00000000       0.00000000       0.25497857
Ag       0.00000000       0.00000000       4.51010101       0.00000000       0.00000000      -0.25497857
2
Properties=species:S:1:pos:R:3:forces:R:3 energy=-0.8511556514100804 pbc="F F F"
Ag       0.00000000       0.00000000       0.00000000       0.00000000       0.00000000       0.23476718
Ag       0.00000000       0.00000000       4.56969697       0.00000000       0.00000000      -0.23476718
2
Properties=species:S:1:pos:R:3:forces:R:3 energy=-0.8376708578052308 pbc="F F F"
Ag       0.00000000       0.00000000       0.00000000       0.00000000       0.00000000       0.21840414
Ag       0.00000000       0.00000000       4.62929293       0.00000000       0.00000000      -0.21840414
2
Properties=species:S:1:pos:R:3:forces:R:3 energy=-0.8250513588883394 pbc="F F F"
Ag       0.00000000       0.00000000       0.00000000       0.00000000       0.00000000       0.20568025
Ag       0.00000000       0.00000000       4.68888889       0.00000000       0.00000000      -0.20568025
2
Properties=species:S:1:pos:R:3:forces:R:3 energy=-0.8130914683984045 pbc="F F F"
Ag       0.00000000       0.00000000       0.00000000       0.00000000       0.00000000       0.19616510
Ag       0.00000000       0.00000000       4.74848485       0.00000000       0.00000000      -0.19616510
2
Properties=species:S:1:pos:R:3:forces:R:3 energy=-0.8016189655344986 pbc="F F F"
Ag       0.00000000       0.00000000       0.00000000       0.00000000       0.00000000       0.18921617
Ag       0.00000000       0.00000000       4.80808081       0.00000000       0.00000000      -0.18921617
2
Properties=species:S:1:pos:R:3:forces:R:3 energy=-0.7905041471102355 pbc="F F F"
Ag       0.00000000       0.00000000       0.00000000       0.00000000       0.00000000       0.18398824
Ag       0.00000000       0.00000000       4.86767677       0.00000000       0.00000000      -0.18398824
2
Properties=species:S:1:pos:R:3:forces:R:3 energy=-0.7796736530794958 pbc="F F F"
Ag       0.00000000       0.00000000       0.00000000       0.00000000       0.00000000       0.17951588
Ag       0.00000000       0.00000000       4.92727273       0.00000000       0.00000000      -0.17951588
2
Properties=species:S:1:pos:R:3:forces:R:3 energy=-0.769111792677787 pbc="F F F"
Ag       0.00000000       0.00000000       0.00000000       0.00000000       0.00000000       0.17481928
Ag       0.00000000       0.00000000       4.98686869       0.00000000       0.00000000      -0.17481928
2
Properties=species:S:1:pos:R:3:forces:R:3 energy=-0.7588593782559016 pbc="F F F"
Ag       0.00000000       0.00000000       0.00000000       0.00000000       0.00000000       0.16903940
Ag       0.00000000       0.00000000       5.04646465       0.00000000       0.00000000      -0.16903940
2
Properties=species:S:1:pos:R:3:forces:R:3 energy=-0.7489986573921015 pbc="F F F"
Ag       0.00000000       0.00000000       0.00000000       0.00000000       0.00000000       0.16154562
Ag       0.00000000       0.00000000       5.10606061       0.00000000       0.00000000      -0.16154562
2
Properties=species:S:1:pos:R:3:forces:R:3 energy=-0.7396439472113497 pbc="F F F"
Ag       0.00000000       0.00000000       0.00000000       0.00000000       0.00000000       0.15199299
Ag       0.00000000       0.00000000       5.16565657       0.00000000       0.00000000      -0.15199299
2
Properties=species:S:1:pos:R:3:forces:R:3 energy=-0.7309230123935634 pbc="F F F"
Ag       0.00000000       0.00000000       0.00000000       0.00000000       0.00000000       0.14035983
Ag       0.00000000       0.00000000       5.22525253       0.00000000       0.00000000      -0.14035983
2
Properties=species:S:1:pos:R:3:forces:R:3 energy=-0.7229509246611104 pbc="F F F"
Ag       0.00000000       0.00000000       0.00000000       0.00000000       0.00000000       0.12692480
Ag       0.00000000       0.00000000       5.28484848       0.00000000       0.00000000      -0.12692480
2
Properties=species:S:1:pos:R:3:forces:R:3 energy=-0.7158200545341968 pbc="F F F"
Ag       0.00000000       0.00000000       0.00000000       0.00000000       0.00000000       0.11221174
Ag       0.00000000       0.00000000       5.34444444       0.00000000       0.00000000      -0.11221174
2
Properties=species:S:1:pos:R:3:forces:R:3 energy=-0.7095877131625301 pbc="F F F"
Ag       0.00000000       0.00000000       0.00000000       0.00000000       0.00000000       0.09689666
Ag       0.00000000       0.00000000       5.40404040       0.00000000       0.00000000      -0.09689666
2
Properties=species:S:1:pos:R:3:forces:R:3 energy=-0.7042674506311579 pbc="F F F"
Ag       0.00000000       0.00000000       0.00000000       0.00000000       0.00000000       0.08168959
Ag       0.00000000       0.00000000       5.46363636       0.00000000       0.00000000      -0.08168959
2
Properties=species:S:1:pos:R:3:forces:R:3 energy=-0.6998371358496457 pbc="F F F"
Ag       0.00000000       0.00000000       0.00000000       0.00000000       0.00000000       0.06722689
Ag       0.00000000       0.00000000       5.52323232       0.00000000       0.00000000      -0.06722689
2
Properties=species:S:1:pos:R:3:forces:R:3 energy=-0.6962316869533005 pbc="F F F"
Ag       0.00000000       0.00000000       0.00000000       0.00000000       0.00000000       0.05398505
Ag       0.00000000       0.00000000       5.58282828       0.00000000       0.00000000      -0.05398505
2
Properties=species:S:1:pos:R:3:forces:R:3 energy=-0.6933720359927107 pbc="F F F"
Ag       0.00000000       0.00000000       0.00000000       0.00000000       0.00000000       0.04226357
Ag       0.00000000       0.00000000       5.64242424       0.00000000       0.00000000      -0.04226357
2
Properties=species:S:1:pos:R:3:forces:R:3 energy=-0.6911607862982078 pbc="F F F"
Ag       0.00000000       0.00000000       0.00000000       0.00000000       0.00000000       0.03218218
Ag       0.00000000       0.00000000       5.70202020       0.00000000       0.00000000      -0.03218218
2
Properties=species:S:1:pos:R:3:forces:R:3 energy=-0.6895031447975607 pbc="F F F"
Ag       0.00000000       0.00000000       0.00000000       0.00000000       0.00000000       0.02377249
Ag       0.00000000       0.00000000       5.76161616       0.00000000       0.00000000      -0.02377249
2
Properties=species:S:1:pos:R:3:forces:R:3 energy=-0.6882950717790427 pbc="F F F"
Ag       0.00000000       0.00000000       0.00000000       0.00000000       0.00000000       0.01702289
Ag       0.00000000       0.00000000       5.82121212       0.00000000       0.00000000      -0.01702289
2
Properties=species:S:1:pos:R:3:forces:R:3 energy=-0.6874414967380429 pbc="F F F"
Ag       0.00000000       0.00000000       0.00000000       0.00000000       0.00000000       0.01194913
Ag       0.00000000       0.00000000       5.88080808       0.00000000       0.00000000      -0.01194913
2
Properties=species:S:1:pos:R:3:forces:R:3 energy=-0.6868359288368192 pbc="F F F"
Ag       0.00000000       0.00000000       0.00000000       0.00000000       0.00000000       0.00861921
Ag       0.00000000       0.00000000       5.94040404       0.00000000       0.00000000      -0.00861921
2
Properties=species:S:1:pos:R:3:forces:R:3 energy=-0.6863757449959167 pbc="F F F"
Ag       0.00000000       0.00000000       0.00000000       0.00000000       0.00000000       0.00717060
Ag       0.00000000       0.00000000       6.00000000       0.00000000       0.00000000      -0.00717060
