2
Properties=species:S:1:pos:R:3:forces:R:3 energy=8377.187564429898 pbc="F F F"
Ag       0.00000000       0.00000000       0.00000000       0.00000000       0.00000000 -138376.90625000
Ag       0.00000000       0.00000000       0.18000000       0.00000000       0.00000000  138376.90625000
2
Properties=species:S:1:pos:R:3:forces:R:3 energy=3450.565005836147 pbc="F F F"
Ag       0.00000000       0.00000000       0.00000000       0.00000000       0.00000000  -47869.68359375
Ag       0.00000000       0.00000000       0.23878788       0.00000000       0.00000000   47869.68359375
2
Properties=species:S:1:pos:R:3:forces:R:3 energy=1612.136050758022 pbc="F F F"
Ag       0.00000000       0.00000000       0.00000000       0.00000000       0.00000000  -19513.46484375
Ag       0.00000000       0.00000000       0.29757576       0.00000000       0.00000000   19513.46484375
2
Properties=species:S:1:pos:R:3:forces:R:3 energy=826.3999057416586 pbc="F F F"
Ag       0.00000000       0.00000000       0.00000000       0.00000000       0.00000000   -8803.70800781
Ag       0.00000000       0.00000000       0.35636364       0.00000000       0.00000000    8803.70800781
2
Properties=species:S:1:pos:R:3:forces:R:3 energy=460.4848972030724 pbc="F F F"
Ag       0.00000000       0.00000000       0.00000000       0.00000000       0.00000000   -4251.03076172
Ag       0.00000000       0.00000000       0.41515152       0.00000000       0.00000000    4251.03076172
2
Properties=species:S:1:pos:R:3:forces:R:3 energy=279.7617832052396 pbc="F F F"
Ag       0.00000000       0.00000000       0.00000000       0.00000000       0.00000000   -2153.52612305
Ag       0.00000000       0.00000000       0.47393939       0.00000000       0.00000000    2153.52612305
2
Properties=species:S:1:pos:R:3:forces:R:3 energy=186.79684793101566 pbc="F F F"
Ag       0.00000000       0.00000000       0.00000000       0.00000000       0.00000000   -1125.39270020
Ag       0.00000000       0.00000000       0.53272727       0.00000000       0.00000000    1125.39270020
2
Properties=species:S:1:pos:R:3:forces:R:3 energy=137.90388838380645 pbc="F F F"
Ag       0.00000000       0.00000000       0.00000000       0.00000000       0.00000000    -593.71472168
Ag       0.00000000       0.00000000       0.59151515       0.00000000       0.00000000     593.71472168
2
Properties=species:S:1:pos:R:3:forces:R:3 energy=112.28995871763466 pbc="F F F"
Ag       0.00000000       0.00000000       0.00000000       0.00000000       0.00000000    -306.12567139
Ag       0.00000000       0.00000000       0.65030303       0.00000000       0.00000000     306.12567139
2
Properties=species:S:1:pos:R:3:forces:R:3 energy=99.4165610171991 pbc="F F F"
Ag       0.00000000       0.00000000       0.00000000       0.00000000       0.00000000    -147.76875305
Ag       0.00000000       0.00000000       0.70909091       0.00000000       0.00000000     147.76875305
2
Properties=species:S:1:pos:R:3:forces:R:3 energy=93.42811974631893 pbc="F F F"
Ag       0.00000000       0.00000000       0.00000000       0.00000000       0.00000000     -66.21002960
Ag       0.00000000       0.00000000       0.76787879       0.00000000       0.00000000      66.21002960
2
Properties=species:S:1:pos:R:3:forces:R:3 energy=90.61236991252042 pbc="F F F"
Ag       0.00000000       0.00000000       0.00000000       0.00000000       0.00000000     -36.96837616
Ag       0.00000000       0.00000000       0.82666667       0.00000000       0.00000000      36.96837616
2
Properties=species:S:1:pos:R:3:forces:R:3 energy=88.34723360241948 pbc="F F F"
Ag       0.00000000       0.00000000       0.00000000       0.00000000       0.00000000     -45.17013168
Ag       0.00000000       0.00000000       0.88545455       0.00000000       0.00000000      45.17013168
2
Properties=species:S:1:pos:R:3:forces:R:3 energy=84.85767119068187 pbc="F F F"
Ag       0.00000000       0.00000000       0.00000000       0.00000000       0.00000000     -75.95220947
Ag       0.00000000       0.00000000       0.94424242       0.00000000       0.00000000      75.95220947
2
Properties=species:S:1:pos:R:3:forces:R:3 energy=79.29045701681709 pbc="F F F"
Ag       0.00000000       0.00000000       0.00000000       0.00000000       0.00000000    -113.31845856
Ag       0.00000000       0.00000000       1.00303030       0.00000000       0.00000000     113.31845856
2
Properties=species:S:1:pos:R:3:forces:R:3 energy=71.65787447254473 pbc="F F F"
Ag       0.00000000       0.00000000       0.00000000       0.00000000       0.00000000    -144.57472229
Ag       0.00000000       0.00000000       1.06181818       0.00000000       0.00000000     144.57472229
2
Properties=species:S:1:pos:R:3:forces:R:3 energy=62.5538033240961 pbc="F F F"
Ag       0.00000000       0.00000000       0.00000000       0.00000000       0.00000000    -162.63171387
Ag       0.00000000       0.00000000       1.12060606       0.00000000       0.00000000     162.63171387
2
Properties=species:S:1:pos:R:3:forces:R:3 energy=52.83548243286927 pbc="F F F"
Ag       0.00000000       0.00000000       0.00000000       0.00000000       0.00000000    -165.63186646
Ag       0.00000000       0.00000000       1.17939394       0.00000000       0.00000000     165.63186646
2
Properties=species:S:1:pos:R:3:forces:R:3 energy=43.299142219564494 pbc="F F F"
Ag       0.00000000       0.00000000       0.00000000       0.00000000       0.00000000    -157.57348633
Ag       0.00000000       0.00000000       1.23818182       0.00000000       0.00000000     157.57348633
2
Properties=species:S:1:pos:R:3:forces:R:3 energy=34.37780817100207 pbc="F F F"
Ag       0.00000000       0.00000000       0.00000000       0.00000000       0.00000000    -145.72302246
Ag       0.00000000       0.00000000       1.29696970       0.00000000       0.00000000     145.72302246
2
Properties=species:S:1:pos:R:3:forces:R:3 energy=26.24150149003074 pbc="F F F"
Ag       0.00000000       0.00000000       0.00000000       0.00000000       0.00000000    -129.45851135
Ag       0.00000000       0.00000000       1.35575758       0.00000000       0.00000000     129.45851135
2
Properties=species:S:1:pos:R:3:forces:R:3 energy=19.431642324287395 pbc="F F F"
Ag       0.00000000       0.00000000       0.00000000       0.00000000       0.00000000    -100.23727417
Ag       0.00000000       0.00000000       1.41454545       0.00000000       0.00000000     100.23727417
2
Properties=species:S:1:pos:R:3:forces:R:3 energy=14.48261369347423 pbc="F F F"
Ag       0.00000000       0.00000000       0.00000000       0.00000000       0.00000000     -69.55745697
Ag       0.00000000       0.00000000       1.47333333       0.00000000       0.00000000      69.55745697
2
Properties=species:S:1:pos:R:3:forces:R:3 energy=11.023779836178493 pbc="F F F"
Ag       0.00000000       0.00000000       0.00000000       0.00000000       0.00000000     -49.99464798
Ag       0.00000000       0.00000000       1.53212121       0.00000000       0.00000000      49.99464798
2
Properties=species:S:1:pos:R:3:forces:R:3 energy=8.431534327170048 pbc="F F F"
Ag       0.00000000       0.00000000       0.00000000       0.00000000       0.00000000     -39.18021774
Ag       0.00000000       0.00000000       1.59090909       0.00000000       0.00000000      39.18021774
2
Properties=species:S:1:pos:R:3:forces:R:3 energy=6.3590900115264235 pbc="F F F"
Ag       0.00000000       0.00000000       0.00000000       0.00000000       0.00000000     -31.45684052
Ag       0.00000000       0.00000000       1.64969697       0.00000000       0.00000000      31.45684052
2
Properties=species:S:1:pos:R:3:forces:R:3 energy=4.725239940142675 pbc="F F F"
Ag       0.00000000       0.00000000       0.00000000       0.00000000       0.00000000     -24.27453804
Ag       0.00000000       0.00000000       1.70848485       0.00000000       0.00000000      24.27453804
2
Properties=species:S:1:pos:R:3:forces:R:3 energy=3.472357044155092 pbc="F F F"
Ag       0.00000000       0.00000000       0.00000000       0.00000000       0.00000000     -18.71129227
Ag       0.00000000       0.00000000       1.76727273       0.00000000       0.00000000      18.71129227
2
Properties=species:S:1:pos:R:3:forces:R:3 energy=2.483100468068322 pbc="F F F"
Ag       0.00000000       0.00000000       0.00000000       0.00000000       0.00000000     -15.25611210
Ag       0.00000000       0.00000000       1.82606061       0.00000000       0.00000000      15.25611210
2
Properties=species:S:1:pos:R:3:forces:R:3 energy=1.6507101566837166 pbc="F F F"
Ag       0.00000000       0.00000000       0.00000000       0.00000000       0.00000000     -13.22396851
Ag       0.00000000       0.00000000       1.88484848       0.00000000       0.00000000      13.22396851
2
Properties=species:S:1:pos:R:3:forces:R:3 energy=0.9167537835546009 pbc="F F F"
Ag       0.00000000       0.00000000       0.00000000       0.00000000       0.00000000     -11.79243374
Ag       0.00000000       0.00000000       1.94363636       0.00000000       0.00000000      11.79243374
2
Properties=species:S:1:pos:R:3:forces:R:3 energy=0.2625247246937611 pbc="F F F"
Ag       0.00000000       0.00000000       0.00000000       0.00000000       0.00000000     -10.45745659
Ag       0.00000000       0.00000000       2.00242424       0.00000000       0.00000000      10.45745659
2
Properties=species:S:1:pos:R:3:forces:R:3 energy=-0.31090274299919807 pbc="F F F"
Ag       0.00000000       0.00000000       0.00000000       0.00000000       0.00000000      -9.03286362
Ag       0.00000000       0.00000000       2.06121212       0.00000000       0.00000000       9.03286362
2
Properties=species:S:1:pos:R:3:forces:R:3 energy=-0.7979212305755687 pbc="F F F"
Ag       0.00000000       0.00000000       0.00000000       0.00000000       0.00000000      -7.52918673
Ag       0.00000000       0.00000000       2.12000000       0.00000000       0.00000000       7.52918673
2
Properties=species:S:1:pos:R:3:forces:R:3 energy=-1.1963746748469384 pbc="F F F"
Ag       0.00000000       0.00000000       0.00000000       0.00000000       0.00000000      -6.03652191
Ag       0.00000000       0.00000000       2.17878788       0.00000000       0.00000000       6.03652191
2
Properties=species:S:1:pos:R:3:forces:R:3 energy=-1.5096917285898515 pbc="F F F"
Ag       0.00000000       0.00000000       0.00000000       0.00000000       0.00000000      -4.64572811
Ag       0.00000000       0.00000000       2.23757576       0.00000000       0.00000000       4.64572811
2
Properties=species:S:1:pos:R:3:forces:R:3 energy=-1.7457723769996214 pbc="F F F"
Ag       0.00000000       0.00000000       0.00000000       0.00000000       0.00000000      -3.41579199
Ag       0.00000000       0.00000000       2.29636364       0.00000000       0.00000000       3.41579199
2
Properties=species:S:1:pos:R:3:forces:R:3 energy=-1.9149964611892505 pbc="F F F"
Ag       0.00000000       0.00000000       0.00000000       0.00000000       0.00000000      -2.37352300
Ag       0.00000000       0.00000000       2.35515152       0.00000000       0.00000000       2.37352300
2
Properties=species:S:1:pos:R:3:forces:R:3 energy=-2.0285904524858904 pbc="F F F"
Ag       0.00000000       0.00000000       0.00000000       0.00000000       0.00000000      -1.52203512
Ag       0.00000000       0.00000000       2.41393939       0.00000000       0.00000000       1.52203512
2
Properties=species:S:1:pos:R:3:forces:R:3 energy=-2.097414685147205 pbc="F F F"
Ag       0.00000000       0.00000000       0.00000000       0.00000000       0.00000000      -0.84683216
Ag       0.00000000       0.00000000       2.47272727       0.00000000       0.00000000       0.84683216
2
Properties=species:S:1:pos:R:3:forces:R:3 energy=-2.1310932009116743 pbc="F F F"
Ag       0.00000000       0.00000000       0.00000000       0.00000000       0.00000000      -0.32131413
Ag       0.00000000       0.00000000       2.53151515       0.00000000       0.00000000       0.32131413
2
Properties=species:S:1:pos:R:3:forces:R:3 energy=-2.137524318181523 pbc="F F F"
Ag       0.00000000       0.00000000       0.00000000       0.00000000       0.00000000       0.08509762
Ag       0.00000000       0.00000000       2.59030303       0.00000000       0.00000000      -0.08509762
2
Properties=species:S:1:pos:R:3:forces:R:3 energy=-2.1228958768290274 pbc="F F F"
Ag       0.00000000       0.00000000       0.00000000       0.00000000       0.00000000       0.39895388
Ag       0.00000000       0.00000000       2.64909091       0.00000000       0.00000000      -0.39895388
2
Properties=species:S:1:pos:R:3:forces:R:3 energy=-2.092062140660946 pbc="F F F"
Ag       0.00000000       0.00000000       0.00000000       0.00000000       0.00000000       0.63882476
Ag       0.00000000       0.00000000       2.70787879       0.00000000       0.00000000      -0.63882476
2
Properties=species:S:1:pos:R:3:forces:R:3 energy=-2.0490103704840874 pbc="F F F"
Ag       0.00000000       0.00000000       0.00000000       0.00000000       0.00000000       0.81605482
Ag       0.00000000       0.00000000       2.76666667       0.00000000       0.00000000      -0.81605482
2
Properties=species:S:1:pos:R:3:forces:R:3 energy=-1.9971977715407132 pbc="F F F"
Ag       0.00000000       0.00000000       0.00000000       0.00000000       0.00000000       0.93790668
Ag       0.00000000       0.00000000       2.82545455       0.00000000       0.00000000      -0.93790668
2
Properties=species:S:1:pos:R:3:forces:R:3 energy=-1.9397015211466262 pbc="F F F"
Ag       0.00000000       0.00000000       0.00000000       0.00000000       0.00000000       1.01048410
Ag       0.00000000       0.00000000       2.88424242       0.00000000       0.00000000      -1.01048410
2
Properties=species:S:1:pos:R:3:forces:R:3 energy=-1.879220024812577 pbc="F F F"
Ag       0.00000000       0.00000000       0.00000000       0.00000000       0.00000000       1.04080510
Ag       0.00000000       0.00000000       2.94303030       0.00000000       0.00000000      -1.04080510
2
Properties=species:S:1:pos:R:3:forces:R:3 energy=-1.817961229125203 pbc="F F F"
Ag       0.00000000       0.00000000       0.00000000       0.00000000       0.00000000       1.03898907
Ag       0.00000000       0.00000000       3.00181818       0.00000000       0.00000000      -1.03898907
2
Properties=species:S:1:pos:R:3:forces:R:3 energy=-1.7574118000010497 pbc="F F F"
Ag       0.00000000       0.00000000       0.00000000       0.00000000       0.00000000       1.01918471
Ag       0.00000000       0.00000000       3.06060606       0.00000000       0.00000000      -1.01918471
2
Properties=species:S:1:pos:R:3:forces:R:3 energy=-1.6982334062315934 pbc="F F F"
Ag       0.00000000       0.00000000       0.00000000       0.00000000       0.00000000       0.99374413
Ag       0.00000000       0.00000000       3.11939394       0.00000000       0.00000000      -0.99374413
2
Properties=species:S:1:pos:R:3:forces:R:3 energy=-1.6406162234050892 pbc="F F F"
Ag       0.00000000       0.00000000       0.00000000       0.00000000       0.00000000       0.96583855
Ag       0.00000000       0.00000000       3.17818182       0.00000000       0.00000000      -0.96583855
2
Properties=species:S:1:pos:R:3:forces:R:3 energy=-1.584768115569342 pbc="F F F"
Ag       0.00000000       0.00000000       0.00000000       0.00000000       0.00000000       0.93322045
Ag       0.00000000       0.00000000       3.23696970       0.00000000       0.00000000      -0.93322045
2
Properties=species:S:1:pos:R:3:forces:R:3 energy=-1.5309983963603826 pbc="F F F"
Ag       0.00000000       0.00000000       0.00000000       0.00000000       0.00000000       0.89526939
Ag       0.00000000       0.00000000       3.29575758       0.00000000       0.00000000      -0.89526939
2
Properties=species:S:1:pos:R:3:forces:R:3 energy=-1.479579187878875 pbc="F F F"
Ag       0.00000000       0.00000000       0.00000000       0.00000000       0.00000000       0.85359365
Ag       0.00000000       0.00000000       3.35454545       0.00000000       0.00000000      -0.85359365
2
Properties=species:S:1:pos:R:3:forces:R:3 energy=-1.4306711812799495 pbc="F F F"
Ag       0.00000000       0.00000000       0.00000000       0.00000000       0.00000000       0.81010711
Ag       0.00000000       0.00000000       3.41333333       0.00000000       0.00000000      -0.81010711
2
Properties=species:S:1:pos:R:3:forces:R:3 energy=-1.3843360731237486 pbc="F F F"
Ag       0.00000000       0.00000000       0.00000000       0.00000000       0.00000000       0.76629359
Ag       0.00000000       0.00000000       3.47212121       0.00000000       0.00000000      -0.76629359
2
Properties=species:S:1:pos:R:3:forces:R:3 energy=-1.3405546640697912 pbc="F F F"
Ag       0.00000000       0.00000000       0.00000000       0.00000000       0.00000000       0.72347957
Ag       0.00000000       0.00000000       3.53090909       0.00000000       0.00000000      -0.72347957
2
Properties=species:S:1:pos:R:3:forces:R:3 energy=-1.2992241288408375 pbc="F F F"
Ag       0.00000000       0.00000000       0.00000000       0.00000000       0.00000000       0.68314826
Ag       0.00000000       0.00000000       3.58969697       0.00000000       0.00000000      -0.68314826
2
Properties=species:S:1:pos:R:3:forces:R:3 energy=-1.260153150898445 pbc="F F F"
Ag       0.00000000       0.00000000       0.00000000       0.00000000       0.00000000       0.64683026
Ag       0.00000000       0.00000000       3.64848485       0.00000000       0.00000000      -0.64683026
2
Properties=species:S:1:pos:R:3:forces:R:3 energy=-1.2230718235346825 pbc="F F F"
Ag       0.00000000       0.00000000       0.00000000       0.00000000       0.00000000       0.61560041
Ag       0.00000000       0.00000000       3.70727273       0.00000000       0.00000000      -0.61560041
2
Properties=species:S:1:pos:R:3:forces:R:3 energy=-1.1876711300183609 pbc="F F F"
Ag       0.00000000       0.00000000       0.00000000       0.00000000       0.00000000       0.58956122
Ag       0.00000000       0.00000000       3.76606061       0.00000000       0.00000000      -0.58956122
2
Properties=species:S:1:pos:R:3:forces:R:3 energy=-1.1536722033766786 pbc="F F F"
Ag       0.00000000       0.00000000       0.00000000       0.00000000       0.00000000       0.56765580
Ag       0.00000000       0.00000000       3.82484848       0.00000000       0.00000000      -0.56765580
2
Properties=species:S:1:pos:R:3:forces:R:3 energy=-1.1208855430780431 pbc="F F F"
Ag       0.00000000       0.00000000       0.00000000       0.00000000       0.00000000       0.54793066
Ag       0.00000000       0.00000000       3.88363636       0.00000000       0.00000000      -0.54793066
2
Properties=species:S:1:pos:R:3:forces:R:3 energy=-1.0892504529721772 pbc="F F F"
Ag       0.00000000       0.00000000       0.00000000       0.00000000       0.00000000       0.52812660
Ag       0.00000000       0.00000000       3.94242424       0.00000000       0.00000000      -0.52812660
2
Properties=species:S:1:pos:R:3:forces:R:3 energy=-1.0588306478895022 pbc="F F F"
Ag       0.00000000       0.00000000       0.00000000       0.00000000       0.00000000       0.50631905
Ag       0.00000000       0.00000000       4.00121212       0.00000000       0.00000000      -0.50631905
2
Properties=species:S:1:pos:R:3:forces:R:3 energy=-1.029782223524198 pbc="F F F"
Ag       0.00000000       0.00000000       0.00000000       0.00000000       0.00000000       0.48136610
Ag       0.00000000       0.00000000       4.06000000       0.00000000       0.00000000      -0.48136610
2
Properties=species:S:1:pos:R:3:forces:R:3 energy=-1.0022998245204784 pbc="F F F"
Ag       0.00000000       0.00000000       0.00000000       0.00000000       0.00000000       0.45306626
Ag       0.00000000       0.00000000       4.11878788       0.00000000       0.00000000      -0.45306626
2
Properties=species:S:1:pos:R:3:forces:R:3 energy=-0.9765659727729955 pbc="F F F"
Ag       0.00000000       0.00000000       0.00000000       0.00000000       0.00000000       0.42204481
Ag       0.00000000       0.00000000       4.17757576       0.00000000       0.00000000      -0.42204481
2
Properties=species:S:1:pos:R:3:forces:R:3 energy=-0.952707823213073 pbc="F F F"
Ag       0.00000000       0.00000000       0.00000000       0.00000000       0.00000000       0.38947904
Ag       0.00000000       0.00000000       4.23636364       0.00000000       0.00000000      -0.38947904
2
Properties=species:S:1:pos:R:3:forces:R:3 energy=-0.9307749356119795 pbc="F F F"
Ag       0.00000000       0.00000000       0.00000000       0.00000000       0.00000000       0.35677329
Ag       0.00000000       0.00000000       4.29515152       0.00000000       0.00000000      -0.35677329
2
Properties=species:S:1:pos:R:3:forces:R:3 energy=-0.9107360300035577 pbc="F F F"
Ag       0.00000000       0.00000000       0.00000000       0.00000000       0.00000000       0.32528880
Ag       0.00000000       0.00000000       4.35393939       0.00000000       0.00000000      -0.32528880
2
Properties=species:S:1:pos:R:3:forces:R:3 energy=-0.8924833792529222 pbc="F F F"
Ag       0.00000000       0.00000000       0.00000000       0.00000000       0.00000000       0.29613942
Ag       0.00000000       0.00000000       4.41272727       0.00000000       0.00000000      -0.29613942
2
Properties=species:S:1:pos:R:3:forces:R:3 energy=-0.875855352283474 pbc="F F F"
Ag       0.00000000       0.00000000       0.00000000       0.00000000       0.00000000       0.27012008
Ag       0.00000000       0.00000000       4.47151515       0.00000000       0.00000000      -0.27012008
2
Properties=species:S:1:pos:R:3:forces:R:3 energy=-0.8606530083427725 pbc="F F F"
Ag       0.00000000       0.00000000       0.00000000       0.00000000       0.00000000       0.24769156
Ag       0.00000000       0.00000000       4.53030303       0.00000000       0.00000000      -0.24769156
2
Properties=species:S:1:pos:R:3:forces:R:3 energy=-0.8466591344748685 pbc="F F F"
Ag       0.00000000       0.00000000       0.00000000       0.00000000       0.00000000       0.22902560
Ag       0.00000000       0.00000000       4.58909091       0.00000000       0.00000000      -0.22902560
2
Properties=species:S:1:pos:R:3:forces:R:3 energy=-0.8336528201478742 pbc="F F F"
Ag       0.00000000       0.00000000       0.00000000       0.00000000       0.00000000       0.21406253
Ag       0.00000000       0.00000000       4.64787879       0.00000000       0.00000000      -0.21406253
2
Properties=species:S:1:pos:R:3:forces:R:3 energy=-0.8214229621657508 pbc="F F F"
Ag       0.00000000       0.00000000       0.00000000       0.00000000       0.00000000       0.20253164
Ag       0.00000000       0.00000000       4.70666667       0.00000000       0.00000000      -0.20253164
2
Properties=species:S:1:pos:R:3:forces:R:3 energy=-0.8097818787019417 pbc="F F F"
Ag       0.00000000       0.00000000       0.00000000       0.00000000       0.00000000       0.19395918
Ag       0.00000000       0.00000000       4.76545455       0.00000000       0.00000000      -0.19395918
2
Properties=species:S:1:pos:R:3:forces:R:3 energy=-0.7985731681929928 pbc="F F F"
Ag       0.00000000       0.00000000       0.00000000       0.00000000       0.00000000       0.18766695
Ag       0.00000000       0.00000000       4.82424242       0.00000000       0.00000000      -0.18766695
2
Properties=species:S:1:pos:R:3:forces:R:3 energy=-0.7876891639960052 pbc="F F F"
Ag       0.00000000       0.00000000       0.00000000       0.00000000       0.00000000       0.18280369
Ag       0.00000000       0.00000000       4.88303030       0.00000000       0.00000000      -0.18280369
2
Properties=species:S:1:pos:R:3:forces:R:3 energy=-0.7770705434986338 pbc="F F F"
Ag       0.00000000       0.00000000       0.00000000       0.00000000       0.00000000       0.17842485
Ag       0.00000000       0.00000000       4.94181818       0.00000000       0.00000000      -0.17842485
2
Properties=species:S:1:pos:R:3:forces:R:3 energy=-0.766718274974596 pbc="F F F"
Ag       0.00000000       0.00000000       0.00000000       0.00000000       0.00000000       0.17361012
Ag       0.00000000       0.00000000       5.00060606       0.00000000       0.00000000      -0.17361012
2
Properties=species:S:1:pos:R:3:forces:R:3 energy=-0.7566818164479818 pbc="F F F"
Ag       0.00000000       0.00000000       0.00000000       0.00000000       0.00000000       0.16757569
Ag       0.00000000       0.00000000       5.05939394       0.00000000       0.00000000      -0.16757569
2
Properties=species:S:1:pos:R:3:forces:R:3 energy=-0.7470501058884266 pbc="F F F"
Ag       0.00000000       0.00000000       0.00000000       0.00000000       0.00000000       0.15977436
Ag       0.00000000       0.00000000       5.11818182       0.00000000       0.00000000      -0.15977436
2
Properties=species:S:1:pos:R:3:forces:R:3 energy=-0.737936852119116 pbc="F F F"
Ag       0.00000000       0.00000000       0.00000000       0.00000000       0.00000000       0.14993936
Ag       0.00000000       0.00000000       5.17696970       0.00000000       0.00000000      -0.14993936
2
Properties=species:S:1:pos:R:3:forces:R:3 energy=-0.729461076360142 pbc="F F F"
Ag       0.00000000       0.00000000       0.00000000       0.00000000       0.00000000       0.13810860
Ag       0.00000000       0.00000000       5.23575758       0.00000000       0.00000000      -0.13810860
2
Properties=species:S:1:pos:R:3:forces:R:3 energy=-0.7217320290855527 pbc="F F F"
Ag       0.00000000       0.00000000       0.00000000       0.00000000       0.00000000       0.12460141
Ag       0.00000000       0.00000000       5.29454545       0.00000000       0.00000000      -0.12460141
2
Properties=species:S:1:pos:R:3:forces:R:3 energy=-0.7148331448705708 pbc="F F F"
Ag       0.00000000       0.00000000       0.00000000       0.00000000       0.00000000       0.10994749
Ag       0.00000000       0.00000000       5.35333333       0.00000000       0.00000000      -0.10994749
2
Properties=species:S:1:pos:R:3:forces:R:3 energy=-0.7088135189273912 pbc="F F F"
Ag       0.00000000       0.00000000       0.00000000       0.00000000       0.00000000       0.09481160
Ag       0.00000000       0.00000000       5.41212121       0.00000000       0.00000000      -0.09481160
2
Properties=species:S:1:pos:R:3:forces:R:3 energy=-0.7036814830588097 pbc="F F F"
Ag       0.00000000       0.00000000       0.00000000       0.00000000       0.00000000       0.07987400
Ag       0.00000000       0.00000000       5.47090909       0.00000000       0.00000000      -0.07987400
2
Properties=species:S:1:pos:R:3:forces:R:3 energy=-0.6994066209207883 pbc="F F F"
Ag       0.00000000       0.00000000       0.00000000       0.00000000       0.00000000       0.06572512
Ag       0.00000000       0.00000000       5.52969697       0.00000000       0.00000000      -0.06572512
2
Properties=species:S:1:pos:R:3:forces:R:3 energy=-0.6959295352646431 pbc="F F F"
Ag       0.00000000       0.00000000       0.00000000       0.00000000       0.00000000       0.05280314
Ag       0.00000000       0.00000000       5.58848485       0.00000000       0.00000000      -0.05280314
2
Properties=species:S:1:pos:R:3:forces:R:3 energy=-0.6931688133449684 pbc="F F F"
Ag       0.00000000       0.00000000       0.00000000       0.00000000       0.00000000       0.04137888
Ag       0.00000000       0.00000000       5.64727273       0.00000000       0.00000000      -0.04137888
2
Properties=species:S:1:pos:R:3:forces:R:3 energy=-0.6910334844983747 pbc="F F F"
Ag       0.00000000       0.00000000       0.00000000       0.00000000       0.00000000       0.03156058
Ag       0.00000000       0.00000000       5.70606061       0.00000000       0.00000000      -0.03156058
2
Properties=species:S:1:pos:R:3:forces:R:3 energy=-0.6894249979761637 pbc="F F F"
Ag       0.00000000       0.00000000       0.00000000       0.00000000       0.00000000       0.02336262
Ag       0.00000000       0.00000000       5.76484848       0.00000000       0.00000000      -0.02336262
2
Properties=species:S:1:pos:R:3:forces:R:3 energy=-0.6882538373850868 pbc="F F F"
Ag       0.00000000       0.00000000       0.00000000       0.00000000       0.00000000       0.01678390
Ag       0.00000000       0.00000000       5.82363636       0.00000000       0.00000000      -0.01678390
2
Properties=species:S:1:pos:R:3:forces:R:3 energy=-0.6874215290041122 pbc="F F F"
Ag       0.00000000       0.00000000       0.00000000       0.00000000       0.00000000       0.01183444
Ag       0.00000000       0.00000000       5.88242424       0.00000000       0.00000000      -0.01183444
2
Properties=species:S:1:pos:R:3:forces:R:3 energy=-0.686829165832605 pbc="F F F"
Ag       0.00000000       0.00000000       0.00000000       0.00000000       0.00000000       0.00858513
Ag       0.00000000       0.00000000       5.94121212       0.00000000       0.00000000      -0.00858513
2
Properties=species:S:1:pos:R:3:forces:R:3 energy=-0.6863757449959167 pbc="F F F"
Ag       0.00000000       0.00000000       0.00000000       0.00000000       0.00000000       0.00717060
Ag       0.00000000       0.00000000       6.00000000       0.00000000       0.00000000      -0.00717060
