2
Properties=species:S:1:pos:R:3:forces:R:3 energy=1401.7155689882889 pbc="F F F"
Al       0.00000000       0.00000000       0.00000000       0.00000000       0.00000000  -18204.75000000
Al       0.00000000       0.00000000       0.18000000       0.00000000       0.00000000   18204.75000000
2
Properties=species:S:1:pos:R:3:forces:R:3 energy=720.8126148867262 pbc="F F F"
Al       0.00000000       0.00000000       0.00000000       0.00000000       0.00000000   -7056.71875000
Al       0.00000000       0.00000000       0.23878788       0.00000000       0.00000000    7056.71875000
2
Properties=species:S:1:pos:R:3:forces:R:3 energy=437.4208607363356 pbc="F F F"
Al       0.00000000       0.00000000       0.00000000       0.00000000       0.00000000   -3191.27368164
Al       0.00000000       0.00000000       0.29757576       0.00000000       0.00000000    3191.27368164
2
Properties=species:S:1:pos:R:3:forces:R:3 energy=302.67198989939754 pbc="F F F"
Al       0.00000000       0.00000000       0.00000000       0.00000000       0.00000000   -1608.47717285
Al       0.00000000       0.00000000       0.35636364       0.00000000       0.00000000    1608.47717285
2
Properties=species:S:1:pos:R:3:forces:R:3 energy=231.83654068064754 pbc="F F F"
Al       0.00000000       0.00000000       0.00000000       0.00000000       0.00000000    -892.09356689
Al       0.00000000       0.00000000       0.41515152       0.00000000       0.00000000     892.09356689
2
Properties=species:S:1:pos:R:3:forces:R:3 energy=190.227623469662 pbc="F F F"
Al       0.00000000       0.00000000       0.00000000       0.00000000       0.00000000    -570.15161133
Al       0.00000000       0.00000000       0.47393939       0.00000000       0.00000000     570.15161133
2
Properties=species:S:1:pos:R:3:forces:R:3 energy=160.4167409393165 pbc="F F F"
Al       0.00000000       0.00000000       0.00000000       0.00000000       0.00000000    -474.92645264
Al       0.00000000       0.00000000       0.53272727       0.00000000       0.00000000     474.92645264
2
Properties=species:S:1:pos:R:3:forces:R:3 energy=131.5483022819698 pbc="F F F"
Al       0.00000000       0.00000000       0.00000000       0.00000000       0.00000000    -516.95690918
Al       0.00000000       0.00000000       0.59151515       0.00000000       0.00000000     516.95690918
2
Properties=species:S:1:pos:R:3:forces:R:3 energy=102.01319953910183 pbc="F F F"
Al       0.00000000       0.00000000       0.00000000       0.00000000       0.00000000    -475.98516846
Al       0.00000000       0.00000000       0.65030303       0.00000000       0.00000000     475.98516846
2
Properties=species:S:1:pos:R:3:forces:R:3 energy=72.83064355148483 pbc="F F F"
Al       0.00000000       0.00000000       0.00000000       0.00000000       0.00000000    -509.77194214
Al       0.00000000       0.00000000       0.70909091       0.00000000       0.00000000     509.77194214
2
Properties=species:S:1:pos:R:3:forces:R:3 energy=44.852883489969194 pbc="F F F"
Al       0.00000000       0.00000000       0.00000000       0.00000000       0.00000000    -422.64544678
Al       0.00000000       0.00000000       0.76787879       0.00000000       0.00000000     422.64544678
2
Properties=species:S:1:pos:R:3:forces:R:3 energy=26.68663362855473 pbc="F F F"
Al       0.00000000       0.00000000       0.00000000       0.00000000       0.00000000    -196.80612183
Al       0.00000000       0.00000000       0.82666667       0.00000000       0.00000000     196.80612183
2
Properties=species:S:1:pos:R:3:forces:R:3 energy=17.952838988397584 pbc="F F F"
Al       0.00000000       0.00000000       0.00000000       0.00000000       0.00000000    -110.88471222
Al       0.00000000       0.00000000       0.88545455       0.00000000       0.00000000     110.88471222
2
Properties=species:S:1:pos:R:3:forces:R:3 energy=13.20767104375488 pbc="F F F"
Al       0.00000000       0.00000000       0.00000000       0.00000000       0.00000000     -56.64928818
Al       0.00000000       0.00000000       0.94424242       0.00000000       0.00000000      56.64928818
2
Properties=species:S:1:pos:R:3:forces:R:3 energy=10.511014889343123 pbc="F F F"
Al       0.00000000       0.00000000       0.00000000       0.00000000       0.00000000     -39.04126358
Al       0.00000000       0.00000000       1.00303030       0.00000000       0.00000000      39.04126358
2
Properties=species:S:1:pos:R:3:forces:R:3 energy=8.479298957427252 pbc="F F F"
Al       0.00000000       0.00000000       0.00000000       0.00000000       0.00000000     -29.97324181
Al       0.00000000       0.00000000       1.06181818       0.00000000       0.00000000      29.97324181
2
Properties=species:S:1:pos:R:3:forces:R:3 energy=6.983229920276402 pbc="F F F"
Al       0.00000000       0.00000000       0.00000000       0.00000000       0.00000000     -21.34704208
Al       0.00000000       0.00000000       1.12060606       0.00000000       0.00000000      21.34704208
2
Properties=species:S:1:pos:R:3:forces:R:3 energy=5.8876307628002875 pbc="F F F"
Al       0.00000000       0.00000000       0.00000000       0.00000000       0.00000000     -16.67958260
Al       0.00000000       0.00000000       1.17939394       0.00000000       0.00000000      16.67958260
2
Properties=species:S:1:pos:R:3:forces:R:3 energy=4.959342540129567 pbc="F F F"
Al       0.00000000       0.00000000       0.00000000       0.00000000       0.00000000     -15.14978027
Al       0.00000000       0.00000000       1.23818182       0.00000000       0.00000000      15.14978027
2
Properties=species:S:1:pos:R:3:forces:R:3 energy=4.101220336424586 pbc="F F F"
Al       0.00000000       0.00000000       0.00000000       0.00000000       0.00000000     -13.97164345
Al       0.00000000       0.00000000       1.29696970       0.00000000       0.00000000      13.97164345
2
Properties=species:S:1:pos:R:3:forces:R:3 energy=3.3264503196904642 pbc="F F F"
Al       0.00000000       0.00000000       0.00000000       0.00000000       0.00000000     -12.34205914
Al       0.00000000       0.00000000       1.35575758       0.00000000       0.00000000      12.34205914
2
Properties=species:S:1:pos:R:3:forces:R:3 energy=2.6474757646467744 pbc="F F F"
Al       0.00000000       0.00000000       0.00000000       0.00000000       0.00000000     -10.83505440
Al       0.00000000       0.00000000       1.41454545       0.00000000       0.00000000      10.83505440
2
Properties=species:S:1:pos:R:3:forces:R:3 energy=2.0403659045961917 pbc="F F F"
Al       0.00000000       0.00000000       0.00000000       0.00000000       0.00000000      -9.92871094
Al       0.00000000       0.00000000       1.47333333       0.00000000       0.00000000       9.92871094
2
Properties=species:S:1:pos:R:3:forces:R:3 energy=1.4689747478286355 pbc="F F F"
Al       0.00000000       0.00000000       0.00000000       0.00000000       0.00000000      -9.58088779
Al       0.00000000       0.00000000       1.53212121       0.00000000       0.00000000       9.58088779
2
Properties=species:S:1:pos:R:3:forces:R:3 energy=0.9093466825973519 pbc="F F F"
Al       0.00000000       0.00000000       0.00000000       0.00000000       0.00000000      -9.46295071
Al       0.00000000       0.00000000       1.59090909       0.00000000       0.00000000       9.46295071
2
Properties=species:S:1:pos:R:3:forces:R:3 energy=0.35934642481637447 pbc="F F F"
Al       0.00000000       0.00000000       0.00000000       0.00000000       0.00000000      -9.19882393
Al       0.00000000       0.00000000       1.64969697       0.00000000       0.00000000       9.19882393
2
Properties=species:S:1:pos:R:3:forces:R:3 energy=-0.1650263028638724 pbc="F F F"
Al       0.00000000       0.00000000       0.00000000       0.00000000       0.00000000      -8.57705021
Al       0.00000000       0.00000000       1.70848485       0.00000000       0.00000000       8.57705021
2
Properties=species:S:1:pos:R:3:forces:R:3 energy=-0.6426743848199747 pbc="F F F"
Al       0.00000000       0.00000000       0.00000000       0.00000000       0.00000000      -7.63171959
Al       0.00000000       0.00000000       1.76727273       0.00000000       0.00000000       7.63171959
2
Properties=species:S:1:pos:R:3:forces:R:3 energy=-1.059358599028575 pbc="F F F"
Al       0.00000000       0.00000000       0.00000000       0.00000000       0.00000000      -6.53364134
Al       0.00000000       0.00000000       1.82606061       0.00000000       0.00000000       6.53364134
2
Properties=species:S:1:pos:R:3:forces:R:3 energy=-1.4109378276346178 pbc="F F F"
Al       0.00000000       0.00000000       0.00000000       0.00000000       0.00000000      -5.43608713
Al       0.00000000       0.00000000       1.88484848       0.00000000       0.00000000       5.43608713
2
Properties=species:S:1:pos:R:3:forces:R:3 energy=-1.7000997332659298 pbc="F F F"
Al       0.00000000       0.00000000       0.00000000       0.00000000       0.00000000      -4.41808128
Al       0.00000000       0.00000000       1.94363636       0.00000000       0.00000000       4.41808128
2
Properties=species:S:1:pos:R:3:forces:R:3 energy=-1.9326211934223332 pbc="F F F"
Al       0.00000000       0.00000000       0.00000000       0.00000000       0.00000000      -3.51320887
Al       0.00000000       0.00000000       2.00242424       0.00000000       0.00000000       3.51320887
2
Properties=species:S:1:pos:R:3:forces:R:3 energy=-2.1157663862175484 pbc="F F F"
Al       0.00000000       0.00000000       0.00000000       0.00000000       0.00000000      -2.74054098
Al       0.00000000       0.00000000       2.06121212       0.00000000       0.00000000       2.74054098
2
Properties=species:S:1:pos:R:3:forces:R:3 energy=-2.257522866741483 pbc="F F F"
Al       0.00000000       0.00000000       0.00000000       0.00000000       0.00000000      -2.10385656
Al       0.00000000       0.00000000       2.12000000       0.00000000       0.00000000       2.10385656
2
Properties=species:S:1:pos:R:3:forces:R:3 energy=-2.365444667415669 pbc="F F F"
Al       0.00000000       0.00000000       0.00000000       0.00000000       0.00000000      -1.58491766
Al       0.00000000       0.00000000       2.17878788       0.00000000       0.00000000       1.58491766
2
Properties=species:S:1:pos:R:3:forces:R:3 energy=-2.4455857411512034 pbc="F F F"
Al       0.00000000       0.00000000       0.00000000       0.00000000       0.00000000      -1.15373850
Al       0.00000000       0.00000000       2.23757576       0.00000000       0.00000000       1.15373850
2
Properties=species:S:1:pos:R:3:forces:R:3 energy=-2.502312917973701 pbc="F F F"
Al       0.00000000       0.00000000       0.00000000       0.00000000       0.00000000      -0.78508919
Al       0.00000000       0.00000000       2.29636364       0.00000000       0.00000000       0.78508919
2
Properties=species:S:1:pos:R:3:forces:R:3 energy=-2.5388401273672323 pbc="F F F"
Al       0.00000000       0.00000000       0.00000000       0.00000000       0.00000000      -0.46500453
Al       0.00000000       0.00000000       2.35515152       0.00000000       0.00000000       0.46500453
2
Properties=species:S:1:pos:R:3:forces:R:3 energy=-2.5578052848726367 pbc="F F F"
Al       0.00000000       0.00000000       0.00000000       0.00000000       0.00000000      -0.18671237
Al       0.00000000       0.00000000       2.41393939       0.00000000       0.00000000       0.18671237
2
Properties=species:S:1:pos:R:3:forces:R:3 energy=-2.5614998995145792 pbc="F F F"
Al       0.00000000       0.00000000       0.00000000       0.00000000       0.00000000       0.05561277
Al       0.00000000       0.00000000       2.47272727       0.00000000       0.00000000      -0.05561277
2
Properties=species:S:1:pos:R:3:forces:R:3 energy=-2.551821223023075 pbc="F F F"
Al       0.00000000       0.00000000       0.00000000       0.00000000       0.00000000       0.26964942
Al       0.00000000       0.00000000       2.53151515       0.00000000       0.00000000      -0.26964942
2
Properties=species:S:1:pos:R:3:forces:R:3 energy=-2.5301792032311967 pbc="F F F"
Al       0.00000000       0.00000000       0.00000000       0.00000000       0.00000000       0.46406218
Al       0.00000000       0.00000000       2.59030303       0.00000000       0.00000000      -0.46406218
2
Properties=species:S:1:pos:R:3:forces:R:3 energy=-2.497501338490073 pbc="F F F"
Al       0.00000000       0.00000000       0.00000000       0.00000000       0.00000000       0.64598238
Al       0.00000000       0.00000000       2.64909091       0.00000000       0.00000000      -0.64598238
2
Properties=species:S:1:pos:R:3:forces:R:3 energy=-2.45441312690418 pbc="F F F"
Al       0.00000000       0.00000000       0.00000000       0.00000000       0.00000000       0.81820995
Al       0.00000000       0.00000000       2.70787879       0.00000000       0.00000000      -0.81820995
2
Properties=species:S:1:pos:R:3:forces:R:3 energy=-2.4015410107523354 pbc="F F F"
Al       0.00000000       0.00000000       0.00000000       0.00000000       0.00000000       0.97795665
Al       0.00000000       0.00000000       2.76666667       0.00000000       0.00000000      -0.97795665
2
Properties=species:S:1:pos:R:3:forces:R:3 energy=-2.339803710458983 pbc="F F F"
Al       0.00000000       0.00000000       0.00000000       0.00000000       0.00000000       1.11857212
Al       0.00000000       0.00000000       2.82545455       0.00000000       0.00000000      -1.11857212
2
Properties=species:S:1:pos:R:3:forces:R:3 energy=-2.270522438358613 pbc="F F F"
Al       0.00000000       0.00000000       0.00000000       0.00000000       0.00000000       1.23392963
Al       0.00000000       0.00000000       2.88424242       0.00000000       0.00000000      -1.23392963
2
Properties=species:S:1:pos:R:3:forces:R:3 energy=-2.1952399202020003 pbc="F F F"
Al       0.00000000       0.00000000       0.00000000       0.00000000       0.00000000       1.32323098
Al       0.00000000       0.00000000       2.94303030       0.00000000       0.00000000      -1.32323098
2
Properties=species:S:1:pos:R:3:forces:R:3 energy=-2.115339581209709 pbc="F F F"
Al       0.00000000       0.00000000       0.00000000       0.00000000       0.00000000       1.39234626
Al       0.00000000       0.00000000       3.00181818       0.00000000       0.00000000      -1.39234626
2
Properties=species:S:1:pos:R:3:forces:R:3 energy=-2.0317901891374874 pbc="F F F"
Al       0.00000000       0.00000000       0.00000000       0.00000000       0.00000000       1.44813037
Al       0.00000000       0.00000000       3.06060606       0.00000000       0.00000000      -1.44813037
2
Properties=species:S:1:pos:R:3:forces:R:3 energy=-1.9453148228106472 pbc="F F F"
Al       0.00000000       0.00000000       0.00000000       0.00000000       0.00000000       1.49151254
Al       0.00000000       0.00000000       3.11939394       0.00000000       0.00000000      -1.49151254
2
Properties=species:S:1:pos:R:3:forces:R:3 energy=-1.856734197301304 pbc="F F F"
Al       0.00000000       0.00000000       0.00000000       0.00000000       0.00000000       1.51912653
Al       0.00000000       0.00000000       3.17818182       0.00000000       0.00000000      -1.51912653
2
Properties=species:S:1:pos:R:3:forces:R:3 energy=-1.7670685657125225 pbc="F F F"
Al       0.00000000       0.00000000       0.00000000       0.00000000       0.00000000       1.52813208
Al       0.00000000       0.00000000       3.23696970       0.00000000       0.00000000      -1.52813208
2
Properties=species:S:1:pos:R:3:forces:R:3 energy=-1.6774490202947026 pbc="F F F"
Al       0.00000000       0.00000000       0.00000000       0.00000000       0.00000000       1.51747298
Al       0.00000000       0.00000000       3.29575758       0.00000000       0.00000000      -1.51747298
2
Properties=species:S:1:pos:R:3:forces:R:3 energy=-1.5890290690422972 pbc="F F F"
Al       0.00000000       0.00000000       0.00000000       0.00000000       0.00000000       1.48749888
Al       0.00000000       0.00000000       3.35454545       0.00000000       0.00000000      -1.48749888
2
Properties=species:S:1:pos:R:3:forces:R:3 energy=-1.5029032034429717 pbc="F F F"
Al       0.00000000       0.00000000       0.00000000       0.00000000       0.00000000       1.43979990
Al       0.00000000       0.00000000       3.41333333       0.00000000       0.00000000      -1.43979990
2
Properties=species:S:1:pos:R:3:forces:R:3 energy=-1.4200382042974722 pbc="F F F"
Al       0.00000000       0.00000000       0.00000000       0.00000000       0.00000000       1.37710226
Al       0.00000000       0.00000000       3.47212121       0.00000000       0.00000000      -1.37710226
2
Properties=species:S:1:pos:R:3:forces:R:3 energy=-1.3412143711093314 pbc="F F F"
Al       0.00000000       0.00000000       0.00000000       0.00000000       0.00000000       1.30297768
Al       0.00000000       0.00000000       3.53090909       0.00000000       0.00000000      -1.30297768
2
Properties=species:S:1:pos:R:3:forces:R:3 energy=-1.2669858816293318 pbc="F F F"
Al       0.00000000       0.00000000       0.00000000       0.00000000       0.00000000       1.22135770
Al       0.00000000       0.00000000       3.58969697       0.00000000       0.00000000      -1.22135770
2
Properties=species:S:1:pos:R:3:forces:R:3 energy=-1.1976835757154398 pbc="F F F"
Al       0.00000000       0.00000000       0.00000000       0.00000000       0.00000000       1.13602698
Al       0.00000000       0.00000000       3.64848485       0.00000000       0.00000000      -1.13602698
2
Properties=species:S:1:pos:R:3:forces:R:3 energy=-1.1334263174135952 pbc="F F F"
Al       0.00000000       0.00000000       0.00000000       0.00000000       0.00000000       1.05021715
Al       0.00000000       0.00000000       3.70727273       0.00000000       0.00000000      -1.05021715
2
Properties=species:S:1:pos:R:3:forces:R:3 energy=-1.07416457738462 pbc="F F F"
Al       0.00000000       0.00000000       0.00000000       0.00000000       0.00000000       0.96637267
Al       0.00000000       0.00000000       3.76606061       0.00000000       0.00000000      -0.96637267
2
Properties=species:S:1:pos:R:3:forces:R:3 energy=-1.019732340302397 pbc="F F F"
Al       0.00000000       0.00000000       0.00000000       0.00000000       0.00000000       0.88614434
Al       0.00000000       0.00000000       3.82484848       0.00000000       0.00000000      -0.88614434
2
Properties=species:S:1:pos:R:3:forces:R:3 energy=-0.9698857978598862 pbc="F F F"
Al       0.00000000       0.00000000       0.00000000       0.00000000       0.00000000       0.81046242
Al       0.00000000       0.00000000       3.88363636       0.00000000       0.00000000      -0.81046242
2
Properties=species:S:1:pos:R:3:forces:R:3 energy=-0.924344254562504 pbc="F F F"
Al       0.00000000       0.00000000       0.00000000       0.00000000       0.00000000       0.73973703
Al       0.00000000       0.00000000       3.94242424       0.00000000       0.00000000      -0.73973703
2
Properties=species:S:1:pos:R:3:forces:R:3 energy=-0.8828127144727294 pbc="F F F"
Al       0.00000000       0.00000000       0.00000000       0.00000000       0.00000000       0.67404401
Al       0.00000000       0.00000000       4.00121212       0.00000000       0.00000000      -0.67404401
2
Properties=species:S:1:pos:R:3:forces:R:3 energy=-0.844996267520273 pbc="F F F"
Al       0.00000000       0.00000000       0.00000000       0.00000000       0.00000000       0.61331248
Al       0.00000000       0.00000000       4.06000000       0.00000000       0.00000000      -0.61331248
2
Properties=species:S:1:pos:R:3:forces:R:3 energy=-0.8106063085600194 pbc="F F F"
Al       0.00000000       0.00000000       0.00000000       0.00000000       0.00000000       0.55747652
Al       0.00000000       0.00000000       4.11878788       0.00000000       0.00000000      -0.55747652
2
Properties=species:S:1:pos:R:3:forces:R:3 energy=-0.7793538446447489 pbc="F F F"
Al       0.00000000       0.00000000       0.00000000       0.00000000       0.00000000       0.50657290
Al       0.00000000       0.00000000       4.17757576       0.00000000       0.00000000      -0.50657290
2
Properties=species:S:1:pos:R:3:forces:R:3 energy=-0.7509453690493839 pbc="F F F"
Al       0.00000000       0.00000000       0.00000000       0.00000000       0.00000000       0.46076506
Al       0.00000000       0.00000000       4.23636364       0.00000000       0.00000000      -0.46076506
2
Properties=species:S:1:pos:R:3:forces:R:3 energy=-0.7250743277193433 pbc="F F F"
Al       0.00000000       0.00000000       0.00000000       0.00000000       0.00000000       0.42027617
Al       0.00000000       0.00000000       4.29515152       0.00000000       0.00000000      -0.42027617
2
Properties=species:S:1:pos:R:3:forces:R:3 energy=-0.7014242403028499 pbc="F F F"
Al       0.00000000       0.00000000       0.00000000       0.00000000       0.00000000       0.38524681
Al       0.00000000       0.00000000       4.35393939       0.00000000       0.00000000      -0.38524681
2
Properties=species:S:1:pos:R:3:forces:R:3 energy=-0.679674327994082 pbc="F F F"
Al       0.00000000       0.00000000       0.00000000       0.00000000       0.00000000       0.35555711
Al       0.00000000       0.00000000       4.41272727       0.00000000       0.00000000      -0.35555711
2
Properties=species:S:1:pos:R:3:forces:R:3 energy=-0.6595234435061285 pbc="F F F"
Al       0.00000000       0.00000000       0.00000000       0.00000000       0.00000000       0.33073583
Al       0.00000000       0.00000000       4.47151515       0.00000000       0.00000000      -0.33073583
2
Properties=species:S:1:pos:R:3:forces:R:3 energy=-0.6407081421977152 pbc="F F F"
Al       0.00000000       0.00000000       0.00000000       0.00000000       0.00000000       0.30994800
Al       0.00000000       0.00000000       4.53030303       0.00000000       0.00000000      -0.30994800
2
Properties=species:S:1:pos:R:3:forces:R:3 energy=-0.6230231500570133 pbc="F F F"
Al       0.00000000       0.00000000       0.00000000       0.00000000       0.00000000       0.29212445
Al       0.00000000       0.00000000       4.58909091       0.00000000       0.00000000      -0.29212445
2
Properties=species:S:1:pos:R:3:forces:R:3 energy=-0.606325964762622 pbc="F F F"
Al       0.00000000       0.00000000       0.00000000       0.00000000       0.00000000       0.27613899
Al       0.00000000       0.00000000       4.64787879       0.00000000       0.00000000      -0.27613899
2
Properties=species:S:1:pos:R:3:forces:R:3 energy=-0.5905392772992505 pbc="F F F"
Al       0.00000000       0.00000000       0.00000000       0.00000000       0.00000000       0.26099485
Al       0.00000000       0.00000000       4.70666667       0.00000000       0.00000000      -0.26099485
2
Properties=species:S:1:pos:R:3:forces:R:3 energy=-0.5756370385580225 pbc="F F F"
Al       0.00000000       0.00000000       0.00000000       0.00000000       0.00000000       0.24596992
Al       0.00000000       0.00000000       4.76545455       0.00000000       0.00000000      -0.24596992
2
Properties=species:S:1:pos:R:3:forces:R:3 energy=-0.5616245266265206 pbc="F F F"
Al       0.00000000       0.00000000       0.00000000       0.00000000       0.00000000       0.23067720
Al       0.00000000       0.00000000       4.82424242       0.00000000       0.00000000      -0.23067720
2
Properties=species:S:1:pos:R:3:forces:R:3 energy=-0.548521901658496 pbc="F F F"
Al       0.00000000       0.00000000       0.00000000       0.00000000       0.00000000       0.21507308
Al       0.00000000       0.00000000       4.88303030       0.00000000       0.00000000      -0.21507308
2
Properties=species:S:1:pos:R:3:forces:R:3 energy=-0.5363390679689084 pbc="F F F"
Al       0.00000000       0.00000000       0.00000000       0.00000000       0.00000000       0.19938849
Al       0.00000000       0.00000000       4.94181818       0.00000000       0.00000000      -0.19938849
2
Properties=species:S:1:pos:R:3:forces:R:3 energy=-0.5250716009112131 pbc="F F F"
Al       0.00000000       0.00000000       0.00000000       0.00000000       0.00000000       0.18401232
Al       0.00000000       0.00000000       5.00060606       0.00000000       0.00000000      -0.18401232
2
Properties=species:S:1:pos:R:3:forces:R:3 energy=-0.51468925356035 pbc="F F F"
Al       0.00000000       0.00000000       0.00000000       0.00000000       0.00000000       0.16934773
Al       0.00000000       0.00000000       5.05939394       0.00000000       0.00000000      -0.16934773
2
Properties=species:S:1:pos:R:3:forces:R:3 energy=-0.5051408998544735 pbc="F F F"
Al       0.00000000       0.00000000       0.00000000       0.00000000       0.00000000       0.15566355
Al       0.00000000       0.00000000       5.11818182       0.00000000       0.00000000      -0.15566355
2
Properties=species:S:1:pos:R:3:forces:R:3 energy=-0.496366833326662 pbc="F F F"
Al       0.00000000       0.00000000       0.00000000       0.00000000       0.00000000       0.14301842
Al       0.00000000       0.00000000       5.17696970       0.00000000       0.00000000      -0.14301842
2
Properties=species:S:1:pos:R:3:forces:R:3 energy=-0.48830913068554005 pbc="F F F"
Al       0.00000000       0.00000000       0.00000000       0.00000000       0.00000000       0.13124068
Al       0.00000000       0.00000000       5.23575758       0.00000000       0.00000000      -0.13124068
2
Properties=species:S:1:pos:R:3:forces:R:3 energy=-0.48092612078081354 pbc="F F F"
Al       0.00000000       0.00000000       0.00000000       0.00000000       0.00000000       0.11999698
Al       0.00000000       0.00000000       5.29454545       0.00000000       0.00000000      -0.11999698
2
Properties=species:S:1:pos:R:3:forces:R:3 energy=-0.4741969950437483 pbc="F F F"
Al       0.00000000       0.00000000       0.00000000       0.00000000       0.00000000       0.10891293
Al       0.00000000       0.00000000       5.35333333       0.00000000       0.00000000      -0.10891293
2
Properties=species:S:1:pos:R:3:forces:R:3 energy=-0.4681228933340534 pbc="F F F"
Al       0.00000000       0.00000000       0.00000000       0.00000000       0.00000000       0.09767944
Al       0.00000000       0.00000000       5.41212121       0.00000000       0.00000000      -0.09767944
2
Properties=species:S:1:pos:R:3:forces:R:3 energy=-0.46271806748930727 pbc="F F F"
Al       0.00000000       0.00000000       0.00000000       0.00000000       0.00000000       0.08614725
Al       0.00000000       0.00000000       5.47090909       0.00000000       0.00000000      -0.08614725
2
Properties=species:S:1:pos:R:3:forces:R:3 energy=-0.4579993788201648 pbc="F F F"
Al       0.00000000       0.00000000       0.00000000       0.00000000       0.00000000       0.07434408
Al       0.00000000       0.00000000       5.52969697       0.00000000       0.00000000      -0.07434408
2
Properties=species:S:1:pos:R:3:forces:R:3 energy=-0.4539784775225913 pbc="F F F"
Al       0.00000000       0.00000000       0.00000000       0.00000000       0.00000000       0.06246902
Al       0.00000000       0.00000000       5.58848485       0.00000000       0.00000000      -0.06246902
2
Properties=species:S:1:pos:R:3:forces:R:3 energy=-0.45064949073493504 pbc="F F F"
Al       0.00000000       0.00000000       0.00000000       0.00000000       0.00000000       0.05086071
Al       0.00000000       0.00000000       5.64727273       0.00000000       0.00000000      -0.05086071
2
Properties=species:S:1:pos:R:3:forces:R:3 energy=-0.44798617518620176 pbc="F F F"
Al       0.00000000       0.00000000       0.00000000       0.00000000       0.00000000       0.03992391
Al       0.00000000       0.00000000       5.70606061       0.00000000       0.00000000      -0.03992391
2
Properties=species:S:1:pos:R:3:forces:R:3 energy=-0.44593245093693357 pbc="F F F"
Al       0.00000000       0.00000000       0.00000000       0.00000000       0.00000000       0.03007811
Al       0.00000000       0.00000000       5.76484848       0.00000000       0.00000000      -0.03007811
2
Properties=species:S:1:pos:R:3:forces:R:3 energy=-0.4444187077933082 pbc="F F F"
Al       0.00000000       0.00000000       0.00000000       0.00000000       0.00000000       0.02174811
Al       0.00000000       0.00000000       5.82363636       0.00000000       0.00000000      -0.02174811
2
Properties=species:S:1:pos:R:3:forces:R:3 energy=-0.44334110478039296 pbc="F F F"
Al       0.00000000       0.00000000       0.00000000       0.00000000       0.00000000       0.01529059
Al       0.00000000       0.00000000       5.88242424       0.00000000       0.00000000      -0.01529059
2
Properties=species:S:1:pos:R:3:forces:R:3 energy=-0.4425784380486357 pbc="F F F"
Al       0.00000000       0.00000000       0.00000000       0.00000000       0.00000000       0.01101045
Al       0.00000000       0.00000000       5.94121212       0.00000000       0.00000000      -0.01101045
2
Properties=species:S:1:pos:R:3:forces:R:3 energy=-0.44199816281888715 pbc="F F F"
Al       0.00000000       0.00000000       0.00000000       0.00000000       0.00000000       0.00916749
Al       0.00000000       0.00000000       6.00000000       0.00000000       0.00000000      -0.00916749
