2
Properties=species:S:1:pos:R:3:forces:R:3 energy=8517.548776538972 pbc="F F F"
Ar       0.00000000       0.00000000       0.00000000       0.00000000       0.00000000 -182959.90625000
Ar       0.00000000       0.00000000       0.10000000       0.00000000       0.00000000  182959.90625000
2
Properties=species:S:1:pos:R:3:forces:R:3 energy=2838.026071460846 pbc="F F F"
Ar       0.00000000       0.00000000       0.00000000       0.00000000       0.00000000  -45622.07031250
Ar       0.00000000       0.00000000       0.15959596       0.00000000       0.00000000   45622.07031250
2
Properties=species:S:1:pos:R:3:forces:R:3 energy=1195.5662325936587 pbc="F F F"
Ar       0.00000000       0.00000000       0.00000000       0.00000000       0.00000000  -15767.94628906
Ar       0.00000000       0.00000000       0.21919192       0.00000000       0.00000000   15767.94628906
2
Properties=species:S:1:pos:R:3:forces:R:3 energy=576.6137179468052 pbc="F F F"
Ar       0.00000000       0.00000000       0.00000000       0.00000000       0.00000000   -6582.25830078
Ar       0.00000000       0.00000000       0.27878788       0.00000000       0.00000000    6582.25830078
2
Properties=species:S:1:pos:R:3:forces:R:3 energy=303.0272006191564 pbc="F F F"
Ar       0.00000000       0.00000000       0.00000000       0.00000000       0.00000000   -3105.97998047
Ar       0.00000000       0.00000000       0.33838384       0.00000000       0.00000000    3105.97998047
2
Properties=species:S:1:pos:R:3:forces:R:3 energy=168.79210847032567 pbc="F F F"
Ar       0.00000000       0.00000000       0.00000000       0.00000000       0.00000000   -1591.82299805
Ar       0.00000000       0.00000000       0.39797980       0.00000000       0.00000000    1591.82299805
2
Properties=species:S:1:pos:R:3:forces:R:3 energy=98.07991215032233 pbc="F F F"
Ar       0.00000000       0.00000000       0.00000000       0.00000000       0.00000000    -864.47479248
Ar       0.00000000       0.00000000       0.45757576       0.00000000       0.00000000     864.47479248
2
Properties=species:S:1:pos:R:3:forces:R:3 energy=58.88907816193298 pbc="F F F"
Ar       0.00000000       0.00000000       0.00000000       0.00000000       0.00000000    -490.08575439
Ar       0.00000000       0.00000000       0.51717172       0.00000000       0.00000000     490.08575439
2
Properties=species:S:1:pos:R:3:forces:R:3 energy=36.312788135855875 pbc="F F F"
Ar       0.00000000       0.00000000       0.00000000       0.00000000       0.00000000    -287.43066406
Ar       0.00000000       0.00000000       0.57676768       0.00000000       0.00000000     287.43066406
2
Properties=species:S:1:pos:R:3:forces:R:3 energy=22.894394221340974 pbc="F F F"
Ar       0.00000000       0.00000000       0.00000000       0.00000000       0.00000000    -173.42486572
Ar       0.00000000       0.00000000       0.63636364       0.00000000       0.00000000     173.42486572
2
Properties=species:S:1:pos:R:3:forces:R:3 energy=14.703955277450069 pbc="F F F"
Ar       0.00000000       0.00000000       0.00000000       0.00000000       0.00000000    -107.25006866
Ar       0.00000000       0.00000000       0.69595960       0.00000000       0.00000000     107.25006866
2
Properties=species:S:1:pos:R:3:forces:R:3 energy=9.586397227380889 pbc="F F F"
Ar       0.00000000       0.00000000       0.00000000       0.00000000       0.00000000     -67.79219055
Ar       0.00000000       0.00000000       0.75555556       0.00000000       0.00000000      67.79219055
2
Properties=species:S:1:pos:R:3:forces:R:3 energy=6.321775655824664 pbc="F F F"
Ar       0.00000000       0.00000000       0.00000000       0.00000000       0.00000000     -43.69141388
Ar       0.00000000       0.00000000       0.81515152       0.00000000       0.00000000      43.69141388
2
Properties=species:S:1:pos:R:3:forces:R:3 energy=4.200634199774238 pbc="F F F"
Ar       0.00000000       0.00000000       0.00000000       0.00000000       0.00000000     -28.64239311
Ar       0.00000000       0.00000000       0.87474747       0.00000000       0.00000000      28.64239311
2
Properties=species:S:1:pos:R:3:forces:R:3 energy=2.8003276174995557 pbc="F F F"
Ar       0.00000000       0.00000000       0.00000000       0.00000000       0.00000000     -19.05287743
Ar       0.00000000       0.00000000       0.93434343       0.00000000       0.00000000      19.05287743
2
Properties=species:S:1:pos:R:3:forces:R:3 energy=1.8633913852525887 pbc="F F F"
Ar       0.00000000       0.00000000       0.00000000       0.00000000       0.00000000     -12.82758045
Ar       0.00000000       0.00000000       0.99393939       0.00000000       0.00000000      12.82758045
2
Properties=species:S:1:pos:R:3:forces:R:3 energy=1.2296733294918896 pbc="F F F"
Ar       0.00000000       0.00000000       0.00000000       0.00000000       0.00000000      -8.71769905
Ar       0.00000000       0.00000000       1.05353535       0.00000000       0.00000000       8.71769905
2
Properties=species:S:1:pos:R:3:forces:R:3 energy=0.7975610032770639 pbc="F F F"
Ar       0.00000000       0.00000000       0.00000000       0.00000000       0.00000000      -5.96373510
Ar       0.00000000       0.00000000       1.11313131       0.00000000       0.00000000       5.96373510
2
Properties=species:S:1:pos:R:3:forces:R:3 energy=0.5013775689085562 pbc="F F F"
Ar       0.00000000       0.00000000       0.00000000       0.00000000       0.00000000      -4.09466314
Ar       0.00000000       0.00000000       1.17272727       0.00000000       0.00000000       4.09466314
2
Properties=species:S:1:pos:R:3:forces:R:3 energy=0.29789673655566223 pbc="F F F"
Ar       0.00000000       0.00000000       0.00000000       0.00000000       0.00000000      -2.81359363
Ar       0.00000000       0.00000000       1.23232323       0.00000000       0.00000000       2.81359363
2
Properties=species:S:1:pos:R:3:forces:R:3 energy=0.15818082346101786 pbc="F F F"
Ar       0.00000000       0.00000000       0.00000000       0.00000000       0.00000000      -1.92926395
Ar       0.00000000       0.00000000       1.29191919       0.00000000       0.00000000       1.92926395
2
Properties=species:S:1:pos:R:3:forces:R:3 energy=0.06258503375832154 pbc="F F F"
Ar       0.00000000       0.00000000       0.00000000       0.00000000       0.00000000      -1.31606960
Ar       0.00000000       0.00000000       1.35151515       0.00000000       0.00000000       1.31606960
2
Properties=species:S:1:pos:R:3:forces:R:3 energy=-0.0023887035940232774 pbc="F F F"
Ar       0.00000000       0.00000000       0.00000000       0.00000000       0.00000000      -0.89025182
Ar       0.00000000       0.00000000       1.41111111       0.00000000       0.00000000       0.89025182
2
Properties=species:S:1:pos:R:3:forces:R:3 energy=-0.046110976911086815 pbc="F F F"
Ar       0.00000000       0.00000000       0.00000000       0.00000000       0.00000000      -0.59513968
Ar       0.00000000       0.00000000       1.47070707       0.00000000       0.00000000       0.59513968
2
Properties=species:S:1:pos:R:3:forces:R:3 energy=-0.07513789680461933 pbc="F F F"
Ar       0.00000000       0.00000000       0.00000000       0.00000000       0.00000000      -0.39168903
Ar       0.00000000       0.00000000       1.53030303       0.00000000       0.00000000       0.39168903
2
Properties=species:S:1:pos:R:3:forces:R:3 energy=-0.09406927406307272 pbc="F F F"
Ar       0.00000000       0.00000000       0.00000000       0.00000000       0.00000000      -0.25253946
Ar       0.00000000       0.00000000       1.58989899       0.00000000       0.00000000       0.25253946
2
Properties=species:S:1:pos:R:3:forces:R:3 energy=-0.10612828526345722 pbc="F F F"
Ar       0.00000000       0.00000000       0.00000000       0.00000000       0.00000000      -0.15836971
Ar       0.00000000       0.00000000       1.64949495       0.00000000       0.00000000       0.15836971
2
Properties=species:S:1:pos:R:3:forces:R:3 energy=-0.1135656441249947 pbc="F F F"
Ar       0.00000000       0.00000000       0.00000000       0.00000000       0.00000000      -0.09554113
Ar       0.00000000       0.00000000       1.70909091       0.00000000       0.00000000       0.09554113
2
Properties=species:S:1:pos:R:3:forces:R:3 energy=-0.11794568778794304 pbc="F F F"
Ar       0.00000000       0.00000000       0.00000000       0.00000000       0.00000000      -0.05443302
Ar       0.00000000       0.00000000       1.76868687       0.00000000       0.00000000       0.05443302
2
Properties=species:S:1:pos:R:3:forces:R:3 energy=-0.12034898361959039 pbc="F F F"
Ar       0.00000000       0.00000000       0.00000000       0.00000000       0.00000000      -0.02825997
Ar       0.00000000       0.00000000       1.82828283       0.00000000       0.00000000       0.02825997
2
Properties=species:S:1:pos:R:3:forces:R:3 energy=-0.12151484092907783 pbc="F F F"
Ar       0.00000000       0.00000000       0.00000000       0.00000000       0.00000000      -0.01223979
Ar       0.00000000       0.00000000       1.88787879       0.00000000       0.00000000       0.01223979
2
Properties=species:S:1:pos:R:3:forces:R:3 energy=-0.12194221828619511 pbc="F F F"
Ar       0.00000000       0.00000000       0.00000000       0.00000000       0.00000000      -0.00301273
Ar       0.00000000       0.00000000       1.94747475       0.00000000       0.00000000       0.00301273
2
Properties=species:S:1:pos:R:3:forces:R:3 energy=-0.12196162227010254 pbc="F F F"
Ar       0.00000000       0.00000000       0.00000000       0.00000000       0.00000000       0.00177442
Ar       0.00000000       0.00000000       2.00707071       0.00000000       0.00000000      -0.00177442
2
Properties=species:S:1:pos:R:3:forces:R:3 energy=-0.12178597733479939 pbc="F F F"
Ar       0.00000000       0.00000000       0.00000000       0.00000000       0.00000000       0.00376164
Ar       0.00000000       0.00000000       2.06666667       0.00000000       0.00000000      -0.00376164
2
Properties=species:S:1:pos:R:3:forces:R:3 energy=-0.12154622040045758 pbc="F F F"
Ar       0.00000000       0.00000000       0.00000000       0.00000000       0.00000000       0.00408379
Ar       0.00000000       0.00000000       2.12626263       0.00000000       0.00000000      -0.00408379
2
Properties=species:S:1:pos:R:3:forces:R:3 energy=-0.12130836948760765 pbc="F F F"
Ar       0.00000000       0.00000000       0.00000000       0.00000000       0.00000000       0.00388352
Ar       0.00000000       0.00000000       2.18585859       0.00000000       0.00000000      -0.00388352
2
Properties=species:S:1:pos:R:3:forces:R:3 energy=-0.12108470973746216 pbc="F F F"
Ar       0.00000000       0.00000000       0.00000000       0.00000000       0.00000000       0.00361436
Ar       0.00000000       0.00000000       2.24545455       0.00000000       0.00000000      -0.00361436
2
Properties=species:S:1:pos:R:3:forces:R:3 energy=-0.12087807408830228 pbc="F F F"
Ar       0.00000000       0.00000000       0.00000000       0.00000000       0.00000000       0.00331932
Ar       0.00000000       0.00000000       2.30505051       0.00000000       0.00000000      -0.00331932
2
Properties=species:S:1:pos:R:3:forces:R:3 energy=-0.12068871587861033 pbc="F F F"
Ar       0.00000000       0.00000000       0.00000000       0.00000000       0.00000000       0.00304180
Ar       0.00000000       0.00000000       2.36464646       0.00000000       0.00000000      -0.00304180
2
Properties=species:S:1:pos:R:3:forces:R:3 energy=-0.12051436334600776 pbc="F F F"
Ar       0.00000000       0.00000000       0.00000000       0.00000000       0.00000000       0.00282218
Ar       0.00000000       0.00000000       2.42424242       0.00000000       0.00000000      -0.00282218
2
Properties=species:S:1:pos:R:3:forces:R:3 energy=-0.12035051747349233 pbc="F F F"
Ar       0.00000000       0.00000000       0.00000000       0.00000000       0.00000000       0.00269393
Ar       0.00000000       0.00000000       2.48383838       0.00000000       0.00000000      -0.00269393
2
Properties=species:S:1:pos:R:3:forces:R:3 energy=-0.12019098760829282 pbc="F F F"
Ar       0.00000000       0.00000000       0.00000000       0.00000000       0.00000000       0.00268000
Ar       0.00000000       0.00000000       2.54343434       0.00000000       0.00000000      -0.00268000
2
Properties=species:S:1:pos:R:3:forces:R:3 energy=-0.1200285946302937 pbc="F F F"
Ar       0.00000000       0.00000000       0.00000000       0.00000000       0.00000000       0.00279089
Ar       0.00000000       0.00000000       2.60303030       0.00000000       0.00000000      -0.00279089
2
Properties=species:S:1:pos:R:3:forces:R:3 energy=-0.11985587728828208 pbc="F F F"
Ar       0.00000000       0.00000000       0.00000000       0.00000000       0.00000000       0.00302547
Ar       0.00000000       0.00000000       2.66262626       0.00000000       0.00000000      -0.00302547
2
Properties=species:S:1:pos:R:3:forces:R:3 energy=-0.11966571611083329 pbc="F F F"
Ar       0.00000000       0.00000000       0.00000000       0.00000000       0.00000000       0.00337385
Ar       0.00000000       0.00000000       2.72222222       0.00000000       0.00000000      -0.00337385
2
Properties=species:S:1:pos:R:3:forces:R:3 energy=-0.1194517921125002 pbc="F F F"
Ar       0.00000000       0.00000000       0.00000000       0.00000000       0.00000000       0.00382016
Ar       0.00000000       0.00000000       2.78181818       0.00000000       0.00000000      -0.00382016
2
Properties=species:S:1:pos:R:3:forces:R:3 energy=-0.11920883436188529 pbc="F F F"
Ar       0.00000000       0.00000000       0.00000000       0.00000000       0.00000000       0.00434424
Ar       0.00000000       0.00000000       2.84141414       0.00000000       0.00000000      -0.00434424
2
Properties=species:S:1:pos:R:3:forces:R:3 energy=-0.11893291002332361 pbc="F F F"
Ar       0.00000000       0.00000000       0.00000000       0.00000000       0.00000000       0.00492264
Ar       0.00000000       0.00000000       2.90101010       0.00000000       0.00000000      -0.00492264
2
Properties=species:S:1:pos:R:3:forces:R:3 energy=-0.11862151499378759 pbc="F F F"
Ar       0.00000000       0.00000000       0.00000000       0.00000000       0.00000000       0.00553061
Ar       0.00000000       0.00000000       2.96060606       0.00000000       0.00000000      -0.00553061
2
Properties=species:S:1:pos:R:3:forces:R:3 energy=-0.11827358668917684 pbc="F F F"
Ar       0.00000000       0.00000000       0.00000000       0.00000000       0.00000000       0.00614484
Ar       0.00000000       0.00000000       3.02020202       0.00000000       0.00000000      -0.00614484
2
Properties=species:S:1:pos:R:3:forces:R:3 energy=-0.11788935057296099 pbc="F F F"
Ar       0.00000000       0.00000000       0.00000000       0.00000000       0.00000000       0.00674645
Ar       0.00000000       0.00000000       3.07979798       0.00000000       0.00000000      -0.00674645
2
Properties=species:S:1:pos:R:3:forces:R:3 energy=-0.11746997502261294 pbc="F F F"
Ar       0.00000000       0.00000000       0.00000000       0.00000000       0.00000000       0.00732250
Ar       0.00000000       0.00000000       3.13939394       0.00000000       0.00000000      -0.00732250
2
Properties=species:S:1:pos:R:3:forces:R:3 energy=-0.11701722273623184 pbc="F F F"
Ar       0.00000000       0.00000000       0.00000000       0.00000000       0.00000000       0.00786578
Ar       0.00000000       0.00000000       3.19898990       0.00000000       0.00000000      -0.00786578
2
Properties=species:S:1:pos:R:3:forces:R:3 energy=-0.11653315716906439 pbc="F F F"
Ar       0.00000000       0.00000000       0.00000000       0.00000000       0.00000000       0.00837309
Ar       0.00000000       0.00000000       3.25858586       0.00000000       0.00000000      -0.00837309
2
Properties=species:S:1:pos:R:3:forces:R:3 energy=-0.116019957560913 pbc="F F F"
Ar       0.00000000       0.00000000       0.00000000       0.00000000       0.00000000       0.00884297
Ar       0.00000000       0.00000000       3.31818182       0.00000000       0.00000000      -0.00884297
2
Properties=species:S:1:pos:R:3:forces:R:3 energy=-0.11547991583029918 pbc="F F F"
Ar       0.00000000       0.00000000       0.00000000       0.00000000       0.00000000       0.00927372
Ar       0.00000000       0.00000000       3.37777778       0.00000000       0.00000000      -0.00927372
2
Properties=species:S:1:pos:R:3:forces:R:3 energy=-0.11491544408702954 pbc="F F F"
Ar       0.00000000       0.00000000       0.00000000       0.00000000       0.00000000       0.00966229
Ar       0.00000000       0.00000000       3.43737374       0.00000000       0.00000000      -0.00966229
2
Properties=species:S:1:pos:R:3:forces:R:3 energy=-0.11432918000224475 pbc="F F F"
Ar       0.00000000       0.00000000       0.00000000       0.00000000       0.00000000       0.01000416
Ar       0.00000000       0.00000000       3.49696970       0.00000000       0.00000000      -0.01000416
2
Properties=species:S:1:pos:R:3:forces:R:3 energy=-0.1137240656589694 pbc="F F F"
Ar       0.00000000       0.00000000       0.00000000       0.00000000       0.00000000       0.01029384
Ar       0.00000000       0.00000000       3.55656566       0.00000000       0.00000000      -0.01029384
2
Properties=species:S:1:pos:R:3:forces:R:3 energy=-0.11310338302209419 pbc="F F F"
Ar       0.00000000       0.00000000       0.00000000       0.00000000       0.00000000       0.01052583
Ar       0.00000000       0.00000000       3.61616162       0.00000000       0.00000000      -0.01052583
2
Properties=species:S:1:pos:R:3:forces:R:3 energy=-0.11247072059223479 pbc="F F F"
Ar       0.00000000       0.00000000       0.00000000       0.00000000       0.00000000       0.01069542
Ar       0.00000000       0.00000000       3.67575758       0.00000000       0.00000000      -0.01069542
2
Properties=species:S:1:pos:R:3:forces:R:3 energy=-0.11182988852049541 pbc="F F F"
Ar       0.00000000       0.00000000       0.00000000       0.00000000       0.00000000       0.01079931
Ar       0.00000000       0.00000000       3.73535354       0.00000000       0.00000000      -0.01079931
2
Properties=species:S:1:pos:R:3:forces:R:3 energy=-0.11118486637039612 pbc="F F F"
Ar       0.00000000       0.00000000       0.00000000       0.00000000       0.00000000       0.01083573
Ar       0.00000000       0.00000000       3.79494949       0.00000000       0.00000000      -0.01083573
2
Properties=species:S:1:pos:R:3:forces:R:3 energy=-0.11053969775679368 pbc="F F F"
Ar       0.00000000       0.00000000       0.00000000       0.00000000       0.00000000       0.01080447
Ar       0.00000000       0.00000000       3.85454545       0.00000000       0.00000000      -0.01080447
2
Properties=species:S:1:pos:R:3:forces:R:3 energy=-0.10989838307791046 pbc="F F F"
Ar       0.00000000       0.00000000       0.00000000       0.00000000       0.00000000       0.01070658
Ar       0.00000000       0.00000000       3.91414141       0.00000000       0.00000000      -0.01070658
2
Properties=species:S:1:pos:R:3:forces:R:3 energy=-0.10926484132448205 pbc="F F F"
Ar       0.00000000       0.00000000       0.00000000       0.00000000       0.00000000       0.01054419
Ar       0.00000000       0.00000000       3.97373737       0.00000000       0.00000000      -0.01054419
2
Properties=species:S:1:pos:R:3:forces:R:3 energy=-0.10864282337163737 pbc="F F F"
Ar       0.00000000       0.00000000       0.00000000       0.00000000       0.00000000       0.01032038
Ar       0.00000000       0.00000000       4.03333333       0.00000000       0.00000000      -0.01032038
2
Properties=species:S:1:pos:R:3:forces:R:3 energy=-0.10803587440301492 pbc="F F F"
Ar       0.00000000       0.00000000       0.00000000       0.00000000       0.00000000       0.01003932
Ar       0.00000000       0.00000000       4.09292929       0.00000000       0.00000000      -0.01003932
2
Properties=species:S:1:pos:R:3:forces:R:3 energy=-0.10744724558773922 pbc="F F F"
Ar       0.00000000       0.00000000       0.00000000       0.00000000       0.00000000       0.00970641
Ar       0.00000000       0.00000000       4.15252525       0.00000000       0.00000000      -0.00970641
2
Properties=species:S:1:pos:R:3:forces:R:3 energy=-0.10687984078042755 pbc="F F F"
Ar       0.00000000       0.00000000       0.00000000       0.00000000       0.00000000       0.00932867
Ar       0.00000000       0.00000000       4.21212121       0.00000000       0.00000000      -0.00932867
2
Properties=species:S:1:pos:R:3:forces:R:3 energy=-0.10633606502972168 pbc="F F F"
Ar       0.00000000       0.00000000       0.00000000       0.00000000       0.00000000       0.00891477
Ar       0.00000000       0.00000000       4.27171717       0.00000000       0.00000000      -0.00891477
2
Properties=species:S:1:pos:R:3:forces:R:3 energy=-0.1058177903582245 pbc="F F F"
Ar       0.00000000       0.00000000       0.00000000       0.00000000       0.00000000       0.00847496
Ar       0.00000000       0.00000000       4.33131313       0.00000000       0.00000000      -0.00847496
2
Properties=species:S:1:pos:R:3:forces:R:3 energy=-0.10532621258656491 pbc="F F F"
Ar       0.00000000       0.00000000       0.00000000       0.00000000       0.00000000       0.00802044
Ar       0.00000000       0.00000000       4.39090909       0.00000000       0.00000000      -0.00802044
2
Properties=species:S:1:pos:R:3:forces:R:3 energy=-0.10486187927083256 pbc="F F F"
Ar       0.00000000       0.00000000       0.00000000       0.00000000       0.00000000       0.00756250
Ar       0.00000000       0.00000000       4.45050505       0.00000000       0.00000000      -0.00756250
2
Properties=species:S:1:pos:R:3:forces:R:3 energy=-0.10442468902562362 pbc="F F F"
Ar       0.00000000       0.00000000       0.00000000       0.00000000       0.00000000       0.00711140
Ar       0.00000000       0.00000000       4.51010101       0.00000000       0.00000000      -0.00711140
2
Properties=species:S:1:pos:R:3:forces:R:3 energy=-0.10401396110112676 pbc="F F F"
Ar       0.00000000       0.00000000       0.00000000       0.00000000       0.00000000       0.00667528
Ar       0.00000000       0.00000000       4.56969697       0.00000000       0.00000000      -0.00667528
2
Properties=species:S:1:pos:R:3:forces:R:3 energy=-0.10362864307244185 pbc="F F F"
Ar       0.00000000       0.00000000       0.00000000       0.00000000       0.00000000       0.00625940
Ar       0.00000000       0.00000000       4.62929293       0.00000000       0.00000000      -0.00625940
2
Properties=species:S:1:pos:R:3:forces:R:3 energy=-0.10326744383509438 pbc="F F F"
Ar       0.00000000       0.00000000       0.00000000       0.00000000       0.00000000       0.00586605
Ar       0.00000000       0.00000000       4.68888889       0.00000000       0.00000000      -0.00586605
2
Properties=species:S:1:pos:R:3:forces:R:3 energy=-0.10292901674373249 pbc="F F F"
Ar       0.00000000       0.00000000       0.00000000       0.00000000       0.00000000       0.00549493
Ar       0.00000000       0.00000000       4.74848485       0.00000000       0.00000000      -0.00549493
2
Properties=species:S:1:pos:R:3:forces:R:3 energy=-0.10261208706395267 pbc="F F F"
Ar       0.00000000       0.00000000       0.00000000       0.00000000       0.00000000       0.00514407
Ar       0.00000000       0.00000000       4.80808081       0.00000000       0.00000000      -0.00514407
2
Properties=species:S:1:pos:R:3:forces:R:3 energy=-0.10231553080286843 pbc="F F F"
Ar       0.00000000       0.00000000       0.00000000       0.00000000       0.00000000       0.00481095
Ar       0.00000000       0.00000000       4.86767677       0.00000000       0.00000000      -0.00481095
2
Properties=species:S:1:pos:R:3:forces:R:3 energy=-0.10203835116943522 pbc="F F F"
Ar       0.00000000       0.00000000       0.00000000       0.00000000       0.00000000       0.00449325
Ar       0.00000000       0.00000000       4.92727273       0.00000000       0.00000000      -0.00449325
2
Properties=species:S:1:pos:R:3:forces:R:3 energy=-0.10177969750838627 pbc="F F F"
Ar       0.00000000       0.00000000       0.00000000       0.00000000       0.00000000       0.00418940
Ar       0.00000000       0.00000000       4.98686869       0.00000000       0.00000000      -0.00418940
2
Properties=species:S:1:pos:R:3:forces:R:3 energy=-0.10153875915820944 pbc="F F F"
Ar       0.00000000       0.00000000       0.00000000       0.00000000       0.00000000       0.00389863
Ar       0.00000000       0.00000000       5.04646465       0.00000000       0.00000000      -0.00389863
2
Properties=species:S:1:pos:R:3:forces:R:3 energy=-0.1013147597094696 pbc="F F F"
Ar       0.00000000       0.00000000       0.00000000       0.00000000       0.00000000       0.00362071
Ar       0.00000000       0.00000000       5.10606061       0.00000000       0.00000000      -0.00362071
2
Properties=species:S:1:pos:R:3:forces:R:3 energy=-0.1011069379668829 pbc="F F F"
Ar       0.00000000       0.00000000       0.00000000       0.00000000       0.00000000       0.00335563
Ar       0.00000000       0.00000000       5.16565657       0.00000000       0.00000000      -0.00335563
2
Properties=species:S:1:pos:R:3:forces:R:3 energy=-0.10091453337113644 pbc="F F F"
Ar       0.00000000       0.00000000       0.00000000       0.00000000       0.00000000       0.00310342
Ar       0.00000000       0.00000000       5.22525253       0.00000000       0.00000000      -0.00310342
2
Properties=species:S:1:pos:R:3:forces:R:3 energy=-0.10073678560291045 pbc="F F F"
Ar       0.00000000       0.00000000       0.00000000       0.00000000       0.00000000       0.00286385
Ar       0.00000000       0.00000000       5.28484848       0.00000000       0.00000000      -0.00286385
2
Properties=species:S:1:pos:R:3:forces:R:3 energy=-0.10057294250243369 pbc="F F F"
Ar       0.00000000       0.00000000       0.00000000       0.00000000       0.00000000       0.00263656
Ar       0.00000000       0.00000000       5.34444444       0.00000000       0.00000000      -0.00263656
2
Properties=species:S:1:pos:R:3:forces:R:3 energy=-0.10042228781891994 pbc="F F F"
Ar       0.00000000       0.00000000       0.00000000       0.00000000       0.00000000       0.00242114
Ar       0.00000000       0.00000000       5.40404040       0.00000000       0.00000000      -0.00242114
2
Properties=species:S:1:pos:R:3:forces:R:3 energy=-0.10028413125912898 pbc="F F F"
Ar       0.00000000       0.00000000       0.00000000       0.00000000       0.00000000       0.00221725
Ar       0.00000000       0.00000000       5.46363636       0.00000000       0.00000000      -0.00221725
2
Properties=species:S:1:pos:R:3:forces:R:3 energy=-0.10015778913145543 pbc="F F F"
Ar       0.00000000       0.00000000       0.00000000       0.00000000       0.00000000       0.00202487
Ar       0.00000000       0.00000000       5.52323232       0.00000000       0.00000000      -0.00202487
2
Properties=species:S:1:pos:R:3:forces:R:3 energy=-0.10004255474159532 pbc="F F F"
Ar       0.00000000       0.00000000       0.00000000       0.00000000       0.00000000       0.00184424
Ar       0.00000000       0.00000000       5.58282828       0.00000000       0.00000000      -0.00184424
2
Properties=species:S:1:pos:R:3:forces:R:3 energy=-0.09993772822086586 pbc="F F F"
Ar       0.00000000       0.00000000       0.00000000       0.00000000       0.00000000       0.00167592
Ar       0.00000000       0.00000000       5.64242424       0.00000000       0.00000000      -0.00167592
2
Properties=species:S:1:pos:R:3:forces:R:3 energy=-0.09984253167298263 pbc="F F F"
Ar       0.00000000       0.00000000       0.00000000       0.00000000       0.00000000       0.00152075
Ar       0.00000000       0.00000000       5.70202020       0.00000000       0.00000000      -0.00152075
2
Properties=species:S:1:pos:R:3:forces:R:3 energy=-0.0997561860817296 pbc="F F F"
Ar       0.00000000       0.00000000       0.00000000       0.00000000       0.00000000       0.00137964
Ar       0.00000000       0.00000000       5.76161616       0.00000000       0.00000000      -0.00137964
2
Properties=species:S:1:pos:R:3:forces:R:3 energy=-0.09967779489951141 pbc="F F F"
Ar       0.00000000       0.00000000       0.00000000       0.00000000       0.00000000       0.00125361
Ar       0.00000000       0.00000000       5.82121212       0.00000000       0.00000000      -0.00125361
2
Properties=species:S:1:pos:R:3:forces:R:3 energy=-0.09960645798394002 pbc="F F F"
Ar       0.00000000       0.00000000       0.00000000       0.00000000       0.00000000       0.00114354
Ar       0.00000000       0.00000000       5.88080808       0.00000000       0.00000000      -0.00114354
2
Properties=species:S:1:pos:R:3:forces:R:3 energy=-0.09954116154802875 pbc="F F F"
Ar       0.00000000       0.00000000       0.00000000       0.00000000       0.00000000       0.00105026
Ar       0.00000000       0.00000000       5.94040404       0.00000000       0.00000000      -0.00105026
2
Properties=species:S:1:pos:R:3:forces:R:3 energy=-0.09948092021619577 pbc="F F F"
Ar       0.00000000       0.00000000       0.00000000       0.00000000       0.00000000       0.00097438
Ar       0.00000000       0.00000000       6.00000000       0.00000000       0.00000000      -0.00097438
