2
Properties=species:S:1:pos:R:3:forces:R:3 energy=5125.567271797909 pbc="F F F"
As       0.00000000       0.00000000       0.00000000       0.00000000       0.00000000  -80387.60156250
As       0.00000000       0.00000000       0.18000000       0.00000000       0.00000000   80387.60156250
2
Properties=species:S:1:pos:R:3:forces:R:3 energy=2223.448863594784 pbc="F F F"
As       0.00000000       0.00000000       0.00000000       0.00000000       0.00000000  -28738.02539062
As       0.00000000       0.00000000       0.23878788       0.00000000       0.00000000   28738.02539062
2
Properties=species:S:1:pos:R:3:forces:R:3 energy=1104.4873157432214 pbc="F F F"
As       0.00000000       0.00000000       0.00000000       0.00000000       0.00000000  -12102.20996094
As       0.00000000       0.00000000       0.29757576       0.00000000       0.00000000   12102.20996094
2
Properties=species:S:1:pos:R:3:forces:R:3 energy=609.8217884058071 pbc="F F F"
As       0.00000000       0.00000000       0.00000000       0.00000000       0.00000000   -5653.55566406
As       0.00000000       0.00000000       0.35636364       0.00000000       0.00000000    5653.55566406
2
Properties=species:S:1:pos:R:3:forces:R:3 energy=370.9789539394865 pbc="F F F"
As       0.00000000       0.00000000       0.00000000       0.00000000       0.00000000   -2834.53881836
As       0.00000000       0.00000000       0.41515152       0.00000000       0.00000000    2834.53881836
2
Properties=species:S:1:pos:R:3:forces:R:3 energy=248.16140330564937 pbc="F F F"
As       0.00000000       0.00000000       0.00000000       0.00000000       0.00000000   -1502.02014160
As       0.00000000       0.00000000       0.47393939       0.00000000       0.00000000    1502.02014160
2
Properties=species:S:1:pos:R:3:forces:R:3 energy=181.50713698624136 pbc="F F F"
As       0.00000000       0.00000000       0.00000000       0.00000000       0.00000000    -840.01672363
As       0.00000000       0.00000000       0.53272727       0.00000000       0.00000000     840.01672363
2
Properties=species:S:1:pos:R:3:forces:R:3 energy=143.24354147171093 pbc="F F F"
As       0.00000000       0.00000000       0.00000000       0.00000000       0.00000000    -497.35342407
As       0.00000000       0.00000000       0.59151515       0.00000000       0.00000000     497.35342407
2
Properties=species:S:1:pos:R:3:forces:R:3 energy=120.1589087153852 pbc="F F F"
As       0.00000000       0.00000000       0.00000000       0.00000000       0.00000000    -303.61816406
As       0.00000000       0.00000000       0.65030303       0.00000000       0.00000000     303.61816406
2
Properties=species:S:1:pos:R:3:forces:R:3 energy=106.68720631709965 pbc="F F F"
As       0.00000000       0.00000000       0.00000000       0.00000000       0.00000000    -152.79592896
As       0.00000000       0.00000000       0.70909091       0.00000000       0.00000000     152.79592896
2
Properties=species:S:1:pos:R:3:forces:R:3 energy=101.84917100603626 pbc="F F F"
As       0.00000000       0.00000000       0.00000000       0.00000000       0.00000000     -33.06342316
As       0.00000000       0.00000000       0.76787879       0.00000000       0.00000000      33.06342316
2
Properties=species:S:1:pos:R:3:forces:R:3 energy=99.8070113773378 pbc="F F F"
As       0.00000000       0.00000000       0.00000000       0.00000000       0.00000000     -57.17233276
As       0.00000000       0.00000000       0.82666667       0.00000000       0.00000000      57.17233276
2
Properties=species:S:1:pos:R:3:forces:R:3 energy=93.3181661255183 pbc="F F F"
As       0.00000000       0.00000000       0.00000000       0.00000000       0.00000000    -161.71224976
As       0.00000000       0.00000000       0.88545455       0.00000000       0.00000000     161.71224976
2
Properties=species:S:1:pos:R:3:forces:R:3 energy=81.44872876192623 pbc="F F F"
As       0.00000000       0.00000000       0.00000000       0.00000000       0.00000000    -236.97634888
As       0.00000000       0.00000000       0.94424242       0.00000000       0.00000000     236.97634888
2
Properties=species:S:1:pos:R:3:forces:R:3 energy=66.38814484869133 pbc="F F F"
As       0.00000000       0.00000000       0.00000000       0.00000000       0.00000000    -265.89572144
As       0.00000000       0.00000000       1.00303030       0.00000000       0.00000000     265.89572144
2
Properties=species:S:1:pos:R:3:forces:R:3 energy=51.183400103901135 pbc="F F F"
As       0.00000000       0.00000000       0.00000000       0.00000000       0.00000000    -244.98818970
As       0.00000000       0.00000000       1.06181818       0.00000000       0.00000000     244.98818970
2
Properties=species:S:1:pos:R:3:forces:R:3 energy=38.058497460725086 pbc="F F F"
As       0.00000000       0.00000000       0.00000000       0.00000000       0.00000000    -199.15475464
As       0.00000000       0.00000000       1.12060606       0.00000000       0.00000000     199.15475464
2
Properties=species:S:1:pos:R:3:forces:R:3 energy=27.90440537179779 pbc="F F F"
As       0.00000000       0.00000000       0.00000000       0.00000000       0.00000000    -147.03208923
As       0.00000000       0.00000000       1.17939394       0.00000000       0.00000000     147.03208923
2
Properties=species:S:1:pos:R:3:forces:R:3 energy=20.41260652361656 pbc="F F F"
As       0.00000000       0.00000000       0.00000000       0.00000000       0.00000000    -112.15029907
As       0.00000000       0.00000000       1.23818182       0.00000000       0.00000000     112.15029907
2
Properties=species:S:1:pos:R:3:forces:R:3 energy=14.327673736212592 pbc="F F F"
As       0.00000000       0.00000000       0.00000000       0.00000000       0.00000000     -96.35428619
As       0.00000000       0.00000000       1.29696970       0.00000000       0.00000000      96.35428619
2
Properties=species:S:1:pos:R:3:forces:R:3 energy=9.116531876517078 pbc="F F F"
As       0.00000000       0.00000000       0.00000000       0.00000000       0.00000000     -79.59500122
As       0.00000000       0.00000000       1.35575758       0.00000000       0.00000000      79.59500122
2
Properties=species:S:1:pos:R:3:forces:R:3 energy=5.080190363446121 pbc="F F F"
As       0.00000000       0.00000000       0.00000000       0.00000000       0.00000000     -57.84298706
As       0.00000000       0.00000000       1.41454545       0.00000000       0.00000000      57.84298706
2
Properties=species:S:1:pos:R:3:forces:R:3 energy=2.1880884927903863 pbc="F F F"
As       0.00000000       0.00000000       0.00000000       0.00000000       0.00000000     -42.00101089
As       0.00000000       0.00000000       1.47333333       0.00000000       0.00000000      42.00101089
2
Properties=species:S:1:pos:R:3:forces:R:3 energy=0.020174529787898993 pbc="F F F"
As       0.00000000       0.00000000       0.00000000       0.00000000       0.00000000     -32.23374176
As       0.00000000       0.00000000       1.53212121       0.00000000       0.00000000      32.23374176
2
Properties=species:S:1:pos:R:3:forces:R:3 energy=-1.6282200439385883 pbc="F F F"
As       0.00000000       0.00000000       0.00000000       0.00000000       0.00000000     -24.07661629
As       0.00000000       0.00000000       1.59090909       0.00000000       0.00000000      24.07661629
2
Properties=species:S:1:pos:R:3:forces:R:3 energy=-2.853894547826774 pbc="F F F"
As       0.00000000       0.00000000       0.00000000       0.00000000       0.00000000     -18.06054115
As       0.00000000       0.00000000       1.64969697       0.00000000       0.00000000      18.06054115
2
Properties=species:S:1:pos:R:3:forces:R:3 energy=-3.7964737173988063 pbc="F F F"
As       0.00000000       0.00000000       0.00000000       0.00000000       0.00000000     -14.28361702
As       0.00000000       0.00000000       1.70848485       0.00000000       0.00000000      14.28361702
2
Properties=species:S:1:pos:R:3:forces:R:3 energy=-4.553711624460089 pbc="F F F"
As       0.00000000       0.00000000       0.00000000       0.00000000       0.00000000     -11.57150936
As       0.00000000       0.00000000       1.76727273       0.00000000       0.00000000      11.57150936
2
Properties=species:S:1:pos:R:3:forces:R:3 energy=-5.162853903892282 pbc="F F F"
As       0.00000000       0.00000000       0.00000000       0.00000000       0.00000000      -9.17702866
As       0.00000000       0.00000000       1.82606061       0.00000000       0.00000000       9.17702866
2
Properties=species:S:1:pos:R:3:forces:R:3 energy=-5.634848576952638 pbc="F F F"
As       0.00000000       0.00000000       0.00000000       0.00000000       0.00000000      -6.89814711
As       0.00000000       0.00000000       1.88484848       0.00000000       0.00000000       6.89814711
2
Properties=species:S:1:pos:R:3:forces:R:3 energy=-5.976517955764037 pbc="F F F"
As       0.00000000       0.00000000       0.00000000       0.00000000       0.00000000      -4.75428057
As       0.00000000       0.00000000       1.94363636       0.00000000       0.00000000       4.75428057
2
Properties=species:S:1:pos:R:3:forces:R:3 energy=-6.198107057892717 pbc="F F F"
As       0.00000000       0.00000000       0.00000000       0.00000000       0.00000000      -2.82833982
As       0.00000000       0.00000000       2.00242424       0.00000000       0.00000000       2.82833982
2
Properties=species:S:1:pos:R:3:forces:R:3 energy=-6.315003504124941 pbc="F F F"
As       0.00000000       0.00000000       0.00000000       0.00000000       0.00000000      -1.20416903
As       0.00000000       0.00000000       2.06121212       0.00000000       0.00000000       1.20416903
2
Properties=species:S:1:pos:R:3:forces:R:3 energy=-6.346513951151223 pbc="F F F"
As       0.00000000       0.00000000       0.00000000       0.00000000       0.00000000       0.07358318
As       0.00000000       0.00000000       2.12000000       0.00000000       0.00000000      -0.07358318
2
Properties=species:S:1:pos:R:3:forces:R:3 energy=-6.313002632961641 pbc="F F F"
As       0.00000000       0.00000000       0.00000000       0.00000000       0.00000000       1.01330876
As       0.00000000       0.00000000       2.17878788       0.00000000       0.00000000      -1.01330876
2
Properties=species:S:1:pos:R:3:forces:R:3 energy=-6.233061774303012 pbc="F F F"
As       0.00000000       0.00000000       0.00000000       0.00000000       0.00000000       1.66322911
As       0.00000000       0.00000000       2.23757576       0.00000000       0.00000000      -1.66322911
2
Properties=species:S:1:pos:R:3:forces:R:3 energy=-6.121871334211118 pbc="F F F"
As       0.00000000       0.00000000       0.00000000       0.00000000       0.00000000       2.08714485
As       0.00000000       0.00000000       2.29636364       0.00000000       0.00000000      -2.08714485
2
Properties=species:S:1:pos:R:3:forces:R:3 energy=-5.9909358077384915 pbc="F F F"
As       0.00000000       0.00000000       0.00000000       0.00000000       0.00000000       2.34370613
As       0.00000000       0.00000000       2.35515152       0.00000000       0.00000000      -2.34370613
2
Properties=species:S:1:pos:R:3:forces:R:3 energy=-5.848713015774974 pbc="F F F"
As       0.00000000       0.00000000       0.00000000       0.00000000       0.00000000       2.47712374
As       0.00000000       0.00000000       2.41393939       0.00000000       0.00000000      -2.47712374
2
Properties=species:S:1:pos:R:3:forces:R:3 energy=-5.701469463714502 pbc="F F F"
As       0.00000000       0.00000000       0.00000000       0.00000000       0.00000000       2.51923394
As       0.00000000       0.00000000       2.47272727       0.00000000       0.00000000      -2.51923394
2
Properties=species:S:1:pos:R:3:forces:R:3 energy=-5.553777340486317 pbc="F F F"
As       0.00000000       0.00000000       0.00000000       0.00000000       0.00000000       2.49679089
As       0.00000000       0.00000000       2.53151515       0.00000000       0.00000000      -2.49679089
2
Properties=species:S:1:pos:R:3:forces:R:3 energy=-5.408650623053494 pbc="F F F"
As       0.00000000       0.00000000       0.00000000       0.00000000       0.00000000       2.43640971
As       0.00000000       0.00000000       2.59030303       0.00000000       0.00000000      -2.43640971
2
Properties=species:S:1:pos:R:3:forces:R:3 energy=-5.267569524988723 pbc="F F F"
As       0.00000000       0.00000000       0.00000000       0.00000000       0.00000000       2.36275983
As       0.00000000       0.00000000       2.64909091       0.00000000       0.00000000      -2.36275983
2
Properties=species:S:1:pos:R:3:forces:R:3 energy=-5.130777437647139 pbc="F F F"
As       0.00000000       0.00000000       0.00000000       0.00000000       0.00000000       2.29216623
As       0.00000000       0.00000000       2.70787879       0.00000000       0.00000000      -2.29216623
2
Properties=species:S:1:pos:R:3:forces:R:3 energy=-4.997930830542712 pbc="F F F"
As       0.00000000       0.00000000       0.00000000       0.00000000       0.00000000       2.22808290
As       0.00000000       0.00000000       2.76666667       0.00000000       0.00000000      -2.22808290
2
Properties=species:S:1:pos:R:3:forces:R:3 energy=-4.86882367604164 pbc="F F F"
As       0.00000000       0.00000000       0.00000000       0.00000000       0.00000000       2.16315269
As       0.00000000       0.00000000       2.82545455       0.00000000       0.00000000      -2.16315269
2
Properties=species:S:1:pos:R:3:forces:R:3 energy=-4.743831169025037 pbc="F F F"
As       0.00000000       0.00000000       0.00000000       0.00000000       0.00000000       2.08636713
As       0.00000000       0.00000000       2.88424242       0.00000000       0.00000000      -2.08636713
2
Properties=species:S:1:pos:R:3:forces:R:3 energy=-4.623908595976416 pbc="F F F"
As       0.00000000       0.00000000       0.00000000       0.00000000       0.00000000       1.98987246
As       0.00000000       0.00000000       2.94303030       0.00000000       0.00000000      -1.98987246
2
Properties=species:S:1:pos:R:3:forces:R:3 energy=-4.510295092328236 pbc="F F F"
As       0.00000000       0.00000000       0.00000000       0.00000000       0.00000000       1.87188196
As       0.00000000       0.00000000       3.00181818       0.00000000       0.00000000      -1.87188196
2
Properties=species:S:1:pos:R:3:forces:R:3 energy=-4.40417114170708 pbc="F F F"
As       0.00000000       0.00000000       0.00000000       0.00000000       0.00000000       1.73607218
As       0.00000000       0.00000000       3.06060606       0.00000000       0.00000000      -1.73607218
2
Properties=species:S:1:pos:R:3:forces:R:3 energy=-4.306391786695265 pbc="F F F"
As       0.00000000       0.00000000       0.00000000       0.00000000       0.00000000       1.58924747
As       0.00000000       0.00000000       3.11939394       0.00000000       0.00000000      -1.58924747
2
Properties=species:S:1:pos:R:3:forces:R:3 energy=-4.217377631066737 pbc="F F F"
As       0.00000000       0.00000000       0.00000000       0.00000000       0.00000000       1.43915129
As       0.00000000       0.00000000       3.17818182       0.00000000       0.00000000      -1.43915129
2
Properties=species:S:1:pos:R:3:forces:R:3 energy=-4.137100299425052 pbc="F F F"
As       0.00000000       0.00000000       0.00000000       0.00000000       0.00000000       1.29320359
As       0.00000000       0.00000000       3.23696970       0.00000000       0.00000000      -1.29320359
2
Properties=species:S:1:pos:R:3:forces:R:3 energy=-4.065128336730602 pbc="F F F"
As       0.00000000       0.00000000       0.00000000       0.00000000       0.00000000       1.15741718
As       0.00000000       0.00000000       3.29575758       0.00000000       0.00000000      -1.15741718
2
Properties=species:S:1:pos:R:3:forces:R:3 energy=-4.00074307678392 pbc="F F F"
As       0.00000000       0.00000000       0.00000000       0.00000000       0.00000000       1.03547513
As       0.00000000       0.00000000       3.35454545       0.00000000       0.00000000      -1.03547513
2
Properties=species:S:1:pos:R:3:forces:R:3 energy=-3.9430861967666155 pbc="F F F"
As       0.00000000       0.00000000       0.00000000       0.00000000       0.00000000       0.92851442
As       0.00000000       0.00000000       3.41333333       0.00000000       0.00000000      -0.92851442
2
Properties=species:S:1:pos:R:3:forces:R:3 energy=-3.891294846050685 pbc="F F F"
As       0.00000000       0.00000000       0.00000000       0.00000000       0.00000000       0.83564788
As       0.00000000       0.00000000       3.47212121       0.00000000       0.00000000      -0.83564788
2
Properties=species:S:1:pos:R:3:forces:R:3 energy=-3.8445981888921605 pbc="F F F"
As       0.00000000       0.00000000       0.00000000       0.00000000       0.00000000       0.75484204
As       0.00000000       0.00000000       3.53090909       0.00000000       0.00000000      -0.75484204
2
Properties=species:S:1:pos:R:3:forces:R:3 energy=-3.8023539678450677 pbc="F F F"
As       0.00000000       0.00000000       0.00000000       0.00000000       0.00000000       0.68376106
As       0.00000000       0.00000000       3.58969697       0.00000000       0.00000000      -0.68376106
2
Properties=species:S:1:pos:R:3:forces:R:3 energy=-3.76405373380312 pbc="F F F"
As       0.00000000       0.00000000       0.00000000       0.00000000       0.00000000       0.62039340
As       0.00000000       0.00000000       3.64848485       0.00000000       0.00000000      -0.62039340
2
Properties=species:S:1:pos:R:3:forces:R:3 energy=-3.729287621742619 pbc="F F F"
As       0.00000000       0.00000000       0.00000000       0.00000000       0.00000000       0.56334245
As       0.00000000       0.00000000       3.70727273       0.00000000       0.00000000      -0.56334245
2
Properties=species:S:1:pos:R:3:forces:R:3 energy=-3.6977091091222576 pbc="F F F"
As       0.00000000       0.00000000       0.00000000       0.00000000       0.00000000       0.51186210
As       0.00000000       0.00000000       3.76606061       0.00000000       0.00000000      -0.51186210
2
Properties=species:S:1:pos:R:3:forces:R:3 energy=-3.6690007968174094 pbc="F F F"
As       0.00000000       0.00000000       0.00000000       0.00000000       0.00000000       0.46569601
As       0.00000000       0.00000000       3.82484848       0.00000000       0.00000000      -0.46569601
2
Properties=species:S:1:pos:R:3:forces:R:3 energy=-3.6428506251149346 pbc="F F F"
As       0.00000000       0.00000000       0.00000000       0.00000000       0.00000000       0.42483395
As       0.00000000       0.00000000       3.88363636       0.00000000       0.00000000      -0.42483395
2
Properties=species:S:1:pos:R:3:forces:R:3 energy=-3.6189459987799 pbc="F F F"
As       0.00000000       0.00000000       0.00000000       0.00000000       0.00000000       0.38930589
As       0.00000000       0.00000000       3.94242424       0.00000000       0.00000000      -0.38930589
2
Properties=species:S:1:pos:R:3:forces:R:3 energy=-3.5969749157920328 pbc="F F F"
As       0.00000000       0.00000000       0.00000000       0.00000000       0.00000000       0.35904667
As       0.00000000       0.00000000       4.00121212       0.00000000       0.00000000      -0.35904667
2
Properties=species:S:1:pos:R:3:forces:R:3 energy=-3.5766316196995307 pbc="F F F"
As       0.00000000       0.00000000       0.00000000       0.00000000       0.00000000       0.33385670
As       0.00000000       0.00000000       4.06000000       0.00000000       0.00000000      -0.33385670
2
Properties=species:S:1:pos:R:3:forces:R:3 energy=-3.557628155416552 pbc="F F F"
As       0.00000000       0.00000000       0.00000000       0.00000000       0.00000000       0.31341609
As       0.00000000       0.00000000       4.11878788       0.00000000       0.00000000      -0.31341609
2
Properties=species:S:1:pos:R:3:forces:R:3 energy=-3.539696690052564 pbc="F F F"
As       0.00000000       0.00000000       0.00000000       0.00000000       0.00000000       0.29729104
As       0.00000000       0.00000000       4.17757576       0.00000000       0.00000000      -0.29729104
2
Properties=species:S:1:pos:R:3:forces:R:3 energy=-3.5226001102837845 pbc="F F F"
As       0.00000000       0.00000000       0.00000000       0.00000000       0.00000000       0.28491032
As       0.00000000       0.00000000       4.23636364       0.00000000       0.00000000      -0.28491032
2
Properties=species:S:1:pos:R:3:forces:R:3 energy=-3.5061395456256688 pbc="F F F"
As       0.00000000       0.00000000       0.00000000       0.00000000       0.00000000       0.27548444
As       0.00000000       0.00000000       4.29515152       0.00000000       0.00000000      -0.27548444
2
Properties=species:S:1:pos:R:3:forces:R:3 energy=-3.4901731322246614 pbc="F F F"
As       0.00000000       0.00000000       0.00000000       0.00000000       0.00000000       0.26793450
As       0.00000000       0.00000000       4.35393939       0.00000000       0.00000000      -0.26793450
2
Properties=species:S:1:pos:R:3:forces:R:3 energy=-3.4746277706443123 pbc="F F F"
As       0.00000000       0.00000000       0.00000000       0.00000000       0.00000000       0.26086715
As       0.00000000       0.00000000       4.41272727       0.00000000       0.00000000      -0.26086715
2
Properties=species:S:1:pos:R:3:forces:R:3 energy=-3.459523000985316 pbc="F F F"
As       0.00000000       0.00000000       0.00000000       0.00000000       0.00000000       0.25267830
As       0.00000000       0.00000000       4.47151515       0.00000000       0.00000000      -0.25267830
2
Properties=species:S:1:pos:R:3:forces:R:3 energy=-3.4449722829254377 pbc="F F F"
As       0.00000000       0.00000000       0.00000000       0.00000000       0.00000000       0.24176790
As       0.00000000       0.00000000       4.53030303       0.00000000       0.00000000      -0.24176790
2
Properties=species:S:1:pos:R:3:forces:R:3 energy=-3.4311763390062286 pbc="F F F"
As       0.00000000       0.00000000       0.00000000       0.00000000       0.00000000       0.22683789
As       0.00000000       0.00000000       4.58909091       0.00000000       0.00000000      -0.22683789
2
Properties=species:S:1:pos:R:3:forces:R:3 energy=-3.4183950006498502 pbc="F F F"
As       0.00000000       0.00000000       0.00000000       0.00000000       0.00000000       0.20719013
As       0.00000000       0.00000000       4.64787879       0.00000000       0.00000000      -0.20719013
2
Properties=species:S:1:pos:R:3:forces:R:3 energy=-3.4069071094882735 pbc="F F F"
As       0.00000000       0.00000000       0.00000000       0.00000000       0.00000000       0.18290693
As       0.00000000       0.00000000       4.70666667       0.00000000       0.00000000      -0.18290693
2
Properties=species:S:1:pos:R:3:forces:R:3 energy=-3.396963124335104 pbc="F F F"
As       0.00000000       0.00000000       0.00000000       0.00000000       0.00000000       0.15489742
As       0.00000000       0.00000000       4.76545455       0.00000000       0.00000000      -0.15489742
2
Properties=species:S:1:pos:R:3:forces:R:3 energy=-3.3887372101385593 pbc="F F F"
As       0.00000000       0.00000000       0.00000000       0.00000000       0.00000000       0.12472999
As       0.00000000       0.00000000       4.82424242       0.00000000       0.00000000      -0.12472999
2
Properties=species:S:1:pos:R:3:forces:R:3 energy=-3.382301771543016 pbc="F F F"
As       0.00000000       0.00000000       0.00000000       0.00000000       0.00000000       0.09436890
As       0.00000000       0.00000000       4.88303030       0.00000000       0.00000000      -0.09436890
2
Properties=species:S:1:pos:R:3:forces:R:3 energy=-3.3776067065128506 pbc="F F F"
As       0.00000000       0.00000000       0.00000000       0.00000000       0.00000000       0.06580073
As       0.00000000       0.00000000       4.94181818       0.00000000       0.00000000      -0.06580073
2
Properties=species:S:1:pos:R:3:forces:R:3 energy=-3.374495233033544 pbc="F F F"
As       0.00000000       0.00000000       0.00000000       0.00000000       0.00000000       0.04076294
As       0.00000000       0.00000000       5.00060606       0.00000000       0.00000000      -0.04076294
2
Properties=species:S:1:pos:R:3:forces:R:3 energy=-3.372720370087954 pbc="F F F"
As       0.00000000       0.00000000       0.00000000       0.00000000       0.00000000       0.02048038
As       0.00000000       0.00000000       5.05939394       0.00000000       0.00000000      -0.02048038
2
Properties=species:S:1:pos:R:3:forces:R:3 energy=-3.3719814648001587 pbc="F F F"
As       0.00000000       0.00000000       0.00000000       0.00000000       0.00000000       0.00556944
As       0.00000000       0.00000000       5.11818182       0.00000000       0.00000000      -0.00556944
2
Properties=species:S:1:pos:R:3:forces:R:3 energy=-3.3719604455227246 pbc="F F F"
As       0.00000000       0.00000000       0.00000000       0.00000000       0.00000000      -0.00399500
As       0.00000000       0.00000000       5.17696970       0.00000000       0.00000000       0.00399500
2
Properties=species:S:1:pos:R:3:forces:R:3 energy=-3.372357447575301 pbc="F F F"
As       0.00000000       0.00000000       0.00000000       0.00000000       0.00000000      -0.00878804
As       0.00000000       0.00000000       5.23575758       0.00000000       0.00000000       0.00878804
2
Properties=species:S:1:pos:R:3:forces:R:3 energy=-3.3729193957556696 pbc="F F F"
As       0.00000000       0.00000000       0.00000000       0.00000000       0.00000000      -0.00978846
As       0.00000000       0.00000000       5.29454545       0.00000000       0.00000000       0.00978846
2
Properties=species:S:1:pos:R:3:forces:R:3 energy=-3.373457258384503 pbc="F F F"
As       0.00000000       0.00000000       0.00000000       0.00000000       0.00000000      -0.00818152
As       0.00000000       0.00000000       5.35333333       0.00000000       0.00000000       0.00818152
2
Properties=species:S:1:pos:R:3:forces:R:3 energy=-3.3738534454089177 pbc="F F F"
As       0.00000000       0.00000000       0.00000000       0.00000000       0.00000000      -0.00515661
As       0.00000000       0.00000000       5.41212121       0.00000000       0.00000000       0.00515661
2
Properties=species:S:1:pos:R:3:forces:R:3 energy=-3.374055867736885 pbc="F F F"
As       0.00000000       0.00000000       0.00000000       0.00000000       0.00000000      -0.00173234
As       0.00000000       0.00000000       5.47090909       0.00000000       0.00000000       0.00173234
2
Properties=species:S:1:pos:R:3:forces:R:3 energy=-3.374064146181552 pbc="F F F"
As       0.00000000       0.00000000       0.00000000       0.00000000       0.00000000       0.00135247
As       0.00000000       0.00000000       5.52969697       0.00000000       0.00000000      -0.00135247
2
Properties=species:S:1:pos:R:3:forces:R:3 energy=-3.3739119874933228 pbc="F F F"
As       0.00000000       0.00000000       0.00000000       0.00000000       0.00000000       0.00367882
As       0.00000000       0.00000000       5.58848485       0.00000000       0.00000000      -0.00367882
2
Properties=species:S:1:pos:R:3:forces:R:3 energy=-3.3736490748432675 pbc="F F F"
As       0.00000000       0.00000000       0.00000000       0.00000000       0.00000000       0.00511867
As       0.00000000       0.00000000       5.64727273       0.00000000       0.00000000      -0.00511867
2
Properties=species:S:1:pos:R:3:forces:R:3 energy=-3.37332581616166 pbc="F F F"
As       0.00000000       0.00000000       0.00000000       0.00000000       0.00000000       0.00576344
As       0.00000000       0.00000000       5.70606061       0.00000000       0.00000000      -0.00576344
2
Properties=species:S:1:pos:R:3:forces:R:3 energy=-3.3729828834188305 pbc="F F F"
As       0.00000000       0.00000000       0.00000000       0.00000000       0.00000000       0.00582403
As       0.00000000       0.00000000       5.76484848       0.00000000       0.00000000      -0.00582403
2
Properties=species:S:1:pos:R:3:forces:R:3 energy=-3.372647633178656 pbc="F F F"
As       0.00000000       0.00000000       0.00000000       0.00000000       0.00000000       0.00554356
As       0.00000000       0.00000000       5.82363636       0.00000000       0.00000000      -0.00554356
2
Properties=species:S:1:pos:R:3:forces:R:3 energy=-3.3723336230297805 pbc="F F F"
As       0.00000000       0.00000000       0.00000000       0.00000000       0.00000000       0.00513264
As       0.00000000       0.00000000       5.88242424       0.00000000       0.00000000      -0.00513264
2
Properties=species:S:1:pos:R:3:forces:R:3 energy=-3.3720439831038327 pbc="F F F"
As       0.00000000       0.00000000       0.00000000       0.00000000       0.00000000       0.00473087
As       0.00000000       0.00000000       5.94121212       0.00000000       0.00000000      -0.00473087
2
Properties=species:S:1:pos:R:3:forces:R:3 energy=-3.3717759234576965 pbc="F F F"
As       0.00000000       0.00000000       0.00000000       0.00000000       0.00000000       0.00440468
As       0.00000000       0.00000000       6.00000000       0.00000000       0.00000000      -0.00440468
