2
Properties=species:S:1:pos:R:3:forces:R:3 energy=23005.86121711041 pbc="F F F"
As       0.00000000       0.00000000       0.00000000       0.00000000       0.00000000 -527521.87500000
As       0.00000000       0.00000000       0.10000000       0.00000000       0.00000000  527521.87500000
2
Properties=species:S:1:pos:R:3:forces:R:3 energy=7150.380748360409 pbc="F F F"
As       0.00000000       0.00000000       0.00000000       0.00000000       0.00000000 -121484.55468750
As       0.00000000       0.00000000       0.15959596       0.00000000       0.00000000  121484.55468750
2
Properties=species:S:1:pos:R:3:forces:R:3 energy=2886.291392891659 pbc="F F F"
As       0.00000000       0.00000000       0.00000000       0.00000000       0.00000000  -39601.22656250
As       0.00000000       0.00000000       0.21919192       0.00000000       0.00000000   39601.22656250
2
Properties=species:S:1:pos:R:3:forces:R:3 energy=1364.3120227744714 pbc="F F F"
As       0.00000000       0.00000000       0.00000000       0.00000000       0.00000000  -15741.42773438
As       0.00000000       0.00000000       0.27878788       0.00000000       0.00000000   15741.42773438
2
Properties=species:S:1:pos:R:3:forces:R:3 energy=723.7002063713893 pbc="F F F"
As       0.00000000       0.00000000       0.00000000       0.00000000       0.00000000   -7074.04785156
As       0.00000000       0.00000000       0.33838384       0.00000000       0.00000000    7074.04785156
2
Properties=species:S:1:pos:R:3:forces:R:3 energy=424.716624837924 pbc="F F F"
As       0.00000000       0.00000000       0.00000000       0.00000000       0.00000000   -3446.71728516
As       0.00000000       0.00000000       0.39797980       0.00000000       0.00000000    3446.71728516
2
Properties=species:S:1:pos:R:3:forces:R:3 energy=274.96445810571623 pbc="F F F"
As       0.00000000       0.00000000       0.00000000       0.00000000       0.00000000   -1783.07043457
As       0.00000000       0.00000000       0.45757576       0.00000000       0.00000000    1783.07043457
2
Properties=species:S:1:pos:R:3:forces:R:3 energy=195.58694044036696 pbc="F F F"
As       0.00000000       0.00000000       0.00000000       0.00000000       0.00000000    -974.20825195
As       0.00000000       0.00000000       0.51717172       0.00000000       0.00000000     974.20825195
2
Properties=species:S:1:pos:R:3:forces:R:3 energy=151.06090900641493 pbc="F F F"
As       0.00000000       0.00000000       0.00000000       0.00000000       0.00000000    -564.48217773
As       0.00000000       0.00000000       0.57676768       0.00000000       0.00000000     564.48217773
2
Properties=species:S:1:pos:R:3:forces:R:3 energy=124.65328581993745 pbc="F F F"
As       0.00000000       0.00000000       0.00000000       0.00000000       0.00000000    -341.79595947
As       0.00000000       0.00000000       0.63636364       0.00000000       0.00000000     341.79595947
2
Properties=species:S:1:pos:R:3:forces:R:3 energy=108.9277992292931 pbc="F F F"
As       0.00000000       0.00000000       0.00000000       0.00000000       0.00000000    -188.21682739
As       0.00000000       0.00000000       0.69595960       0.00000000       0.00000000     188.21682739
2
Properties=species:S:1:pos:R:3:forces:R:3 energy=102.32807566680091 pbc="F F F"
As       0.00000000       0.00000000       0.00000000       0.00000000       0.00000000     -45.95063019
As       0.00000000       0.00000000       0.75555556       0.00000000       0.00000000      45.95063019
2
Properties=species:S:1:pos:R:3:forces:R:3 energy=100.37723986213112 pbc="F F F"
As       0.00000000       0.00000000       0.00000000       0.00000000       0.00000000     -42.72841263
As       0.00000000       0.00000000       0.81515152       0.00000000       0.00000000      42.72841263
2
Properties=species:S:1:pos:R:3:forces:R:3 energy=94.9606068010395 pbc="F F F"
As       0.00000000       0.00000000       0.00000000       0.00000000       0.00000000    -144.86572266
As       0.00000000       0.00000000       0.87474747       0.00000000       0.00000000     144.86572266
2
Properties=species:S:1:pos:R:3:forces:R:3 energy=83.74499325830827 pbc="F F F"
As       0.00000000       0.00000000       0.00000000       0.00000000       0.00000000    -226.72833252
As       0.00000000       0.00000000       0.93434343       0.00000000       0.00000000     226.72833252
2
Properties=species:S:1:pos:R:3:forces:R:3 energy=68.80291668914558 pbc="F F F"
As       0.00000000       0.00000000       0.00000000       0.00000000       0.00000000    -265.13684082
As       0.00000000       0.00000000       0.99393939       0.00000000       0.00000000     265.13684082
2
Properties=species:S:1:pos:R:3:forces:R:3 energy=53.23381108751189 pbc="F F F"
As       0.00000000       0.00000000       0.00000000       0.00000000       0.00000000    -250.02810669
As       0.00000000       0.00000000       1.05353535       0.00000000       0.00000000     250.02810669
2
Properties=species:S:1:pos:R:3:forces:R:3 energy=39.57163880770117 pbc="F F F"
As       0.00000000       0.00000000       0.00000000       0.00000000       0.00000000    -205.69175720
As       0.00000000       0.00000000       1.11313131       0.00000000       0.00000000     205.69175720
2
Properties=species:S:1:pos:R:3:forces:R:3 energy=28.902814310416698 pbc="F F F"
As       0.00000000       0.00000000       0.00000000       0.00000000       0.00000000    -152.51737976
As       0.00000000       0.00000000       1.17272727       0.00000000       0.00000000     152.51737976
2
Properties=species:S:1:pos:R:3:forces:R:3 energy=21.076374918124095 pbc="F F F"
As       0.00000000       0.00000000       0.00000000       0.00000000       0.00000000    -114.48600769
As       0.00000000       0.00000000       1.23232323       0.00000000       0.00000000     114.48600769
2
Properties=species:S:1:pos:R:3:forces:R:3 energy=14.817169555474816 pbc="F F F"
As       0.00000000       0.00000000       0.00000000       0.00000000       0.00000000     -97.49376678
As       0.00000000       0.00000000       1.29191919       0.00000000       0.00000000      97.49376678
2
Properties=species:S:1:pos:R:3:forces:R:3 energy=9.457373689534721 pbc="F F F"
As       0.00000000       0.00000000       0.00000000       0.00000000       0.00000000     -81.07953644
As       0.00000000       0.00000000       1.35151515       0.00000000       0.00000000      81.07953644
2
Properties=species:S:1:pos:R:3:forces:R:3 energy=5.2808840041185015 pbc="F F F"
As       0.00000000       0.00000000       0.00000000       0.00000000       0.00000000     -59.03388214
As       0.00000000       0.00000000       1.41111111       0.00000000       0.00000000      59.03388214
2
Properties=species:S:1:pos:R:3:forces:R:3 energy=2.299087181998703 pbc="F F F"
As       0.00000000       0.00000000       0.00000000       0.00000000       0.00000000     -42.53256607
As       0.00000000       0.00000000       1.47070707       0.00000000       0.00000000      42.53256607
2
Properties=species:S:1:pos:R:3:forces:R:3 energy=0.07902922541886945 pbc="F F F"
As       0.00000000       0.00000000       0.00000000       0.00000000       0.00000000     -32.50425339
As       0.00000000       0.00000000       1.53030303       0.00000000       0.00000000      32.50425339
2
Properties=species:S:1:pos:R:3:forces:R:3 energy=-1.6038466341422293 pbc="F F F"
As       0.00000000       0.00000000       0.00000000       0.00000000       0.00000000     -24.20251465
As       0.00000000       0.00000000       1.58989899       0.00000000       0.00000000      24.20251465
2
Properties=species:S:1:pos:R:3:forces:R:3 energy=-2.85025038320165 pbc="F F F"
As       0.00000000       0.00000000       0.00000000       0.00000000       0.00000000     -18.07676506
As       0.00000000       0.00000000       1.64949495       0.00000000       0.00000000      18.07676506
2
Properties=species:S:1:pos:R:3:forces:R:3 energy=-3.805118807587169 pbc="F F F"
As       0.00000000       0.00000000       0.00000000       0.00000000       0.00000000     -14.25214195
As       0.00000000       0.00000000       1.70909091       0.00000000       0.00000000      14.25214195
2
Properties=species:S:1:pos:R:3:forces:R:3 energy=-4.570035555356253 pbc="F F F"
As       0.00000000       0.00000000       0.00000000       0.00000000       0.00000000     -11.51177311
As       0.00000000       0.00000000       1.76868687       0.00000000       0.00000000      11.51177311
2
Properties=species:S:1:pos:R:3:forces:R:3 energy=-5.183149375129091 pbc="F F F"
As       0.00000000       0.00000000       0.00000000       0.00000000       0.00000000      -9.08903885
As       0.00000000       0.00000000       1.82828283       0.00000000       0.00000000       9.08903885
2
Properties=species:S:1:pos:R:3:forces:R:3 energy=-5.655581100451093 pbc="F F F"
As       0.00000000       0.00000000       0.00000000       0.00000000       0.00000000      -6.78373718
As       0.00000000       0.00000000       1.88787879       0.00000000       0.00000000       6.78373718
2
Properties=species:S:1:pos:R:3:forces:R:3 energy=-5.994511138647485 pbc="F F F"
As       0.00000000       0.00000000       0.00000000       0.00000000       0.00000000      -4.62086964
As       0.00000000       0.00000000       1.94747475       0.00000000       0.00000000       4.62086964
2
Properties=species:S:1:pos:R:3:forces:R:3 energy=-6.21092449202977 pbc="F F F"
As       0.00000000       0.00000000       0.00000000       0.00000000       0.00000000      -2.68806458
As       0.00000000       0.00000000       2.00707071       0.00000000       0.00000000       2.68806458
2
Properties=species:S:1:pos:R:3:forces:R:3 energy=-6.321206296208775 pbc="F F F"
As       0.00000000       0.00000000       0.00000000       0.00000000       0.00000000      -1.07078207
As       0.00000000       0.00000000       2.06666667       0.00000000       0.00000000       1.07078207
2
Properties=species:S:1:pos:R:3:forces:R:3 energy=-6.345688830749331 pbc="F F F"
As       0.00000000       0.00000000       0.00000000       0.00000000       0.00000000       0.18918799
As       0.00000000       0.00000000       2.12626263       0.00000000       0.00000000      -0.18918799
2
Properties=species:S:1:pos:R:3:forces:R:3 energy=-6.305508758320471 pbc="F F F"
As       0.00000000       0.00000000       0.00000000       0.00000000       0.00000000       1.10559285
As       0.00000000       0.00000000       2.18585859       0.00000000       0.00000000      -1.10559285
2
Properties=species:S:1:pos:R:3:forces:R:3 energy=-6.219684567578047 pbc="F F F"
As       0.00000000       0.00000000       0.00000000       0.00000000       0.00000000       1.73175061
As       0.00000000       0.00000000       2.24545455       0.00000000       0.00000000      -1.73175061
2
Properties=species:S:1:pos:R:3:forces:R:3 energy=-6.1035320306167336 pbc="F F F"
As       0.00000000       0.00000000       0.00000000       0.00000000       0.00000000       2.13435602
As       0.00000000       0.00000000       2.30505051       0.00000000       0.00000000      -2.13435602
2
Properties=species:S:1:pos:R:3:forces:R:3 energy=-5.968539366669238 pbc="F F F"
As       0.00000000       0.00000000       0.00000000       0.00000000       0.00000000       2.37264395
As       0.00000000       0.00000000       2.36464646       0.00000000       0.00000000      -2.37264395
2
Properties=species:S:1:pos:R:3:forces:R:3 energy=-5.82311914778053 pbc="F F F"
As       0.00000000       0.00000000       0.00000000       0.00000000       0.00000000       2.49031949
As       0.00000000       0.00000000       2.42424242       0.00000000       0.00000000      -2.49031949
2
Properties=species:S:1:pos:R:3:forces:R:3 energy=-5.673477175305632 pbc="F F F"
As       0.00000000       0.00000000       0.00000000       0.00000000       0.00000000       2.51913905
As       0.00000000       0.00000000       2.48383838       0.00000000       0.00000000      -2.51913905
2
Properties=species:S:1:pos:R:3:forces:R:3 energy=-5.524075940284824 pbc="F F F"
As       0.00000000       0.00000000       0.00000000       0.00000000       0.00000000       2.48675227
As       0.00000000       0.00000000       2.54343434       0.00000000       0.00000000      -2.48675227
2
Properties=species:S:1:pos:R:3:forces:R:3 energy=-5.377740124832841 pbc="F F F"
As       0.00000000       0.00000000       0.00000000       0.00000000       0.00000000       2.42085314
As       0.00000000       0.00000000       2.60303030       0.00000000       0.00000000      -2.42085314
2
Properties=species:S:1:pos:R:3:forces:R:3 energy=-5.2357015515446355 pbc="F F F"
As       0.00000000       0.00000000       0.00000000       0.00000000       0.00000000       2.34589076
As       0.00000000       0.00000000       2.66262626       0.00000000       0.00000000      -2.34589076
2
Properties=species:S:1:pos:R:3:forces:R:3 energy=-5.098016913356879 pbc="F F F"
As       0.00000000       0.00000000       0.00000000       0.00000000       0.00000000       2.27607465
As       0.00000000       0.00000000       2.72222222       0.00000000       0.00000000      -2.27607465
2
Properties=species:S:1:pos:R:3:forces:R:3 energy=-4.964294218127607 pbc="F F F"
As       0.00000000       0.00000000       0.00000000       0.00000000       0.00000000       2.21187091
As       0.00000000       0.00000000       2.78181818       0.00000000       0.00000000      -2.21187091
2
Properties=species:S:1:pos:R:3:forces:R:3 energy=-4.834452212511498 pbc="F F F"
As       0.00000000       0.00000000       0.00000000       0.00000000       0.00000000       2.14390612
As       0.00000000       0.00000000       2.84141414       0.00000000       0.00000000      -2.14390612
2
Properties=species:S:1:pos:R:3:forces:R:3 energy=-4.709057567363477 pbc="F F F"
As       0.00000000       0.00000000       0.00000000       0.00000000       0.00000000       2.06105113
As       0.00000000       0.00000000       2.90101010       0.00000000       0.00000000      -2.06105113
2
Properties=species:S:1:pos:R:3:forces:R:3 energy=-4.589222389907474 pbc="F F F"
As       0.00000000       0.00000000       0.00000000       0.00000000       0.00000000       1.95677173
As       0.00000000       0.00000000       2.96060606       0.00000000       0.00000000      -1.95677173
2
Properties=species:S:1:pos:R:3:forces:R:3 energy=-4.476255626333458 pbc="F F F"
As       0.00000000       0.00000000       0.00000000       0.00000000       0.00000000       1.83104742
As       0.00000000       0.00000000       3.02020202       0.00000000       0.00000000      -1.83104742
2
Properties=species:S:1:pos:R:3:forces:R:3 energy=-4.371302691488561 pbc="F F F"
As       0.00000000       0.00000000       0.00000000       0.00000000       0.00000000       1.68897796
As       0.00000000       0.00000000       3.07979798       0.00000000       0.00000000      -1.68897796
2
Properties=species:S:1:pos:R:3:forces:R:3 energy=-4.275117274683735 pbc="F F F"
As       0.00000000       0.00000000       0.00000000       0.00000000       0.00000000       1.53816187
As       0.00000000       0.00000000       3.13939394       0.00000000       0.00000000      -1.53816187
2
Properties=species:S:1:pos:R:3:forces:R:3 energy=-4.187978913970703 pbc="F F F"
As       0.00000000       0.00000000       0.00000000       0.00000000       0.00000000       1.38666666
As       0.00000000       0.00000000       3.19898990       0.00000000       0.00000000      -1.38666666
2
Properties=species:S:1:pos:R:3:forces:R:3 energy=-4.109703732915643 pbc="F F F"
As       0.00000000       0.00000000       0.00000000       0.00000000       0.00000000       1.24184084
As       0.00000000       0.00000000       3.25858586       0.00000000       0.00000000      -1.24184084
2
Properties=species:S:1:pos:R:3:forces:R:3 energy=-4.039718717056019 pbc="F F F"
As       0.00000000       0.00000000       0.00000000       0.00000000       0.00000000       1.10915387
As       0.00000000       0.00000000       3.31818182       0.00000000       0.00000000      -1.10915387
2
Properties=species:S:1:pos:R:3:forces:R:3 energy=-3.977203084180598 pbc="F F F"
As       0.00000000       0.00000000       0.00000000       0.00000000       0.00000000       0.99142790
As       0.00000000       0.00000000       3.37777778       0.00000000       0.00000000      -0.99142790
2
Properties=species:S:1:pos:R:3:forces:R:3 energy=-3.9212452650921477 pbc="F F F"
As       0.00000000       0.00000000       0.00000000       0.00000000       0.00000000       0.88893527
As       0.00000000       0.00000000       3.43737374       0.00000000       0.00000000      -0.88893527
2
Properties=species:S:1:pos:R:3:forces:R:3 energy=-3.870975666246114 pbc="F F F"
As       0.00000000       0.00000000       0.00000000       0.00000000       0.00000000       0.80015671
As       0.00000000       0.00000000       3.49696970       0.00000000       0.00000000      -0.80015671
2
Properties=species:S:1:pos:R:3:forces:R:3 energy=-3.825646646688805 pbc="F F F"
As       0.00000000       0.00000000       0.00000000       0.00000000       0.00000000       0.72275400
As       0.00000000       0.00000000       3.55656566       0.00000000       0.00000000      -0.72275400
2
Properties=species:S:1:pos:R:3:forces:R:3 energy=-3.7846504151300846 pbc="F F F"
As       0.00000000       0.00000000       0.00000000       0.00000000       0.00000000       0.65437955
As       0.00000000       0.00000000       3.61616162       0.00000000       0.00000000      -0.65437955
2
Properties=species:S:1:pos:R:3:forces:R:3 energy=-3.7475072752451544 pbc="F F F"
As       0.00000000       0.00000000       0.00000000       0.00000000       0.00000000       0.59319961
As       0.00000000       0.00000000       3.67575758       0.00000000       0.00000000      -0.59319961
2
Properties=species:S:1:pos:R:3:forces:R:3 energy=-3.713825621206503 pbc="F F F"
As       0.00000000       0.00000000       0.00000000       0.00000000       0.00000000       0.53808051
As       0.00000000       0.00000000       3.73535354       0.00000000       0.00000000      -0.53808051
2
Properties=species:S:1:pos:R:3:forces:R:3 energy=-3.683262238158695 pbc="F F F"
As       0.00000000       0.00000000       0.00000000       0.00000000       0.00000000       0.48851570
As       0.00000000       0.00000000       3.79494949       0.00000000       0.00000000      -0.48851570
2
Properties=species:S:1:pos:R:3:forces:R:3 energy=-3.655490691581758 pbc="F F F"
As       0.00000000       0.00000000       0.00000000       0.00000000       0.00000000       0.44438812
As       0.00000000       0.00000000       3.85454545       0.00000000       0.00000000      -0.44438812
2
Properties=species:S:1:pos:R:3:forces:R:3 energy=-3.630186245900157 pbc="F F F"
As       0.00000000       0.00000000       0.00000000       0.00000000       0.00000000       0.40573400
As       0.00000000       0.00000000       3.91414141       0.00000000       0.00000000      -0.40573400
2
Properties=species:S:1:pos:R:3:forces:R:3 energy=-3.607021872387491 pbc="F F F"
As       0.00000000       0.00000000       0.00000000       0.00000000       0.00000000       0.37254137
As       0.00000000       0.00000000       3.97373737       0.00000000       0.00000000      -0.37254137
2
Properties=species:S:1:pos:R:3:forces:R:3 energy=-3.585676669844494 pbc="F F F"
As       0.00000000       0.00000000       0.00000000       0.00000000       0.00000000       0.34467238
As       0.00000000       0.00000000       4.03333333       0.00000000       0.00000000      -0.34467238
2
Properties=species:S:1:pos:R:3:forces:R:3 energy=-3.5658394543809235 pbc="F F F"
As       0.00000000       0.00000000       0.00000000       0.00000000       0.00000000       0.32184774
As       0.00000000       0.00000000       4.09292929       0.00000000       0.00000000      -0.32184774
2
Properties=species:S:1:pos:R:3:forces:R:3 energy=-3.5472223492745742 pbc="F F F"
As       0.00000000       0.00000000       0.00000000       0.00000000       0.00000000       0.30366784
As       0.00000000       0.00000000       4.15252525       0.00000000       0.00000000      -0.30366784
2
Properties=species:S:1:pos:R:3:forces:R:3 energy=-3.5295629743360046 pbc="F F F"
As       0.00000000       0.00000000       0.00000000       0.00000000       0.00000000       0.28960717
As       0.00000000       0.00000000       4.21212121       0.00000000       0.00000000      -0.28960717
2
Properties=species:S:1:pos:R:3:forces:R:3 energy=-3.5126355676344687 pbc="F F F"
As       0.00000000       0.00000000       0.00000000       0.00000000       0.00000000       0.27894953
As       0.00000000       0.00000000       4.27171717       0.00000000       0.00000000      -0.27894953
2
Properties=species:S:1:pos:R:3:forces:R:3 energy=-3.4962663749996032 pbc="F F F"
As       0.00000000       0.00000000       0.00000000       0.00000000       0.00000000       0.27070129
As       0.00000000       0.00000000       4.33131313       0.00000000       0.00000000      -0.27070129
2
Properties=species:S:1:pos:R:3:forces:R:3 energy=-3.4803488169436494 pbc="F F F"
As       0.00000000       0.00000000       0.00000000       0.00000000       0.00000000       0.26353320
As       0.00000000       0.00000000       4.39090909       0.00000000       0.00000000      -0.26353320
2
Properties=species:S:1:pos:R:3:forces:R:3 energy=-3.464865552299444 pbc="F F F"
As       0.00000000       0.00000000       0.00000000       0.00000000       0.00000000       0.25583726
As       0.00000000       0.00000000       4.45050505       0.00000000       0.00000000      -0.25583726
2
Properties=species:S:1:pos:R:3:forces:R:3 energy=-3.4498996569671503 pbc="F F F"
As       0.00000000       0.00000000       0.00000000       0.00000000       0.00000000       0.24591401
As       0.00000000       0.00000000       4.51010101       0.00000000       0.00000000      -0.24591401
2
Properties=species:S:1:pos:R:3:forces:R:3 energy=-3.4356290072384073 pbc="F F F"
As       0.00000000       0.00000000       0.00000000       0.00000000       0.00000000       0.23226517
As       0.00000000       0.00000000       4.56969697       0.00000000       0.00000000      -0.23226517
2
Properties=species:S:1:pos:R:3:forces:R:3 energy=-3.422308749279163 pbc="F F F"
As       0.00000000       0.00000000       0.00000000       0.00000000       0.00000000       0.21392332
As       0.00000000       0.00000000       4.62929293       0.00000000       0.00000000      -0.21392332
2
Properties=species:S:1:pos:R:3:forces:R:3 energy=-3.410228951737443 pbc="F F F"
As       0.00000000       0.00000000       0.00000000       0.00000000       0.00000000       0.19070102
As       0.00000000       0.00000000       4.68888889       0.00000000       0.00000000      -0.19070102
2
Properties=species:S:1:pos:R:3:forces:R:3 energy=-3.3996627445347043 pbc="F F F"
As       0.00000000       0.00000000       0.00000000       0.00000000       0.00000000       0.16328356
As       0.00000000       0.00000000       4.74848485       0.00000000       0.00000000      -0.16328356
2
Properties=species:S:1:pos:R:3:forces:R:3 energy=-3.390821409057856 pbc="F F F"
As       0.00000000       0.00000000       0.00000000       0.00000000       0.00000000       0.13313119
As       0.00000000       0.00000000       4.80808081       0.00000000       0.00000000      -0.13313119
2
Properties=species:S:1:pos:R:3:forces:R:3 energy=-3.383810178023362 pbc="F F F"
As       0.00000000       0.00000000       0.00000000       0.00000000       0.00000000       0.10220152
As       0.00000000       0.00000000       4.86767677       0.00000000       0.00000000      -0.10220152
2
Properties=species:S:1:pos:R:3:forces:R:3 energy=-3.3786129560973386 pbc="F F F"
As       0.00000000       0.00000000       0.00000000       0.00000000       0.00000000       0.07259952
As       0.00000000       0.00000000       4.92727273       0.00000000       0.00000000      -0.07259952
2
Properties=species:S:1:pos:R:3:forces:R:3 energy=-3.3750923579094176 pbc="F F F"
As       0.00000000       0.00000000       0.00000000       0.00000000       0.00000000       0.04622242
As       0.00000000       0.00000000       4.98686869       0.00000000       0.00000000      -0.04622242
2
Properties=species:S:1:pos:R:3:forces:R:3 energy=-3.3730110175892185 pbc="F F F"
As       0.00000000       0.00000000       0.00000000       0.00000000       0.00000000       0.02449430
As       0.00000000       0.00000000       5.04646465       0.00000000       0.00000000      -0.02449430
2
Properties=species:S:1:pos:R:3:forces:R:3 energy=-3.3720647178614658 pbc="F F F"
As       0.00000000       0.00000000       0.00000000       0.00000000       0.00000000       0.00819760
As       0.00000000       0.00000000       5.10606061       0.00000000       0.00000000      -0.00819760
2
Properties=species:S:1:pos:R:3:forces:R:3 energy=-3.371923272080702 pbc="F F F"
As       0.00000000       0.00000000       0.00000000       0.00000000       0.00000000      -0.00255057
As       0.00000000       0.00000000       5.16565657       0.00000000       0.00000000       0.00255057
2
Properties=species:S:1:pos:R:3:forces:R:3 energy=-3.3722679622838503 pbc="F F F"
As       0.00000000       0.00000000       0.00000000       0.00000000       0.00000000      -0.00824249
As       0.00000000       0.00000000       5.22525253       0.00000000       0.00000000       0.00824249
2
Properties=species:S:1:pos:R:3:forces:R:3 energy=-3.3728242484689726 pbc="F F F"
As       0.00000000       0.00000000       0.00000000       0.00000000       0.00000000      -0.00983596
As       0.00000000       0.00000000       5.28484848       0.00000000       0.00000000       0.00983596
2
Properties=species:S:1:pos:R:3:forces:R:3 energy=-3.373383032198321 pbc="F F F"
As       0.00000000       0.00000000       0.00000000       0.00000000       0.00000000      -0.00854404
As       0.00000000       0.00000000       5.34444444       0.00000000       0.00000000       0.00854404
2
Properties=species:S:1:pos:R:3:forces:R:3 energy=-3.3738102313553657 pbc="F F F"
As       0.00000000       0.00000000       0.00000000       0.00000000       0.00000000      -0.00561620
As       0.00000000       0.00000000       5.40404040       0.00000000       0.00000000       0.00561620
2
Properties=species:S:1:pos:R:3:forces:R:3 energy=-3.374042029988192 pbc="F F F"
As       0.00000000       0.00000000       0.00000000       0.00000000       0.00000000      -0.00214883
As       0.00000000       0.00000000       5.46363636       0.00000000       0.00000000       0.00214883
2
Properties=species:S:1:pos:R:3:forces:R:3 energy=-3.3740717961739137 pbc="F F F"
As       0.00000000       0.00000000       0.00000000       0.00000000       0.00000000       0.00104517
As       0.00000000       0.00000000       5.52323232       0.00000000       0.00000000      -0.00104517
2
Properties=species:S:1:pos:R:3:forces:R:3 energy=-3.37393223309542 pbc="F F F"
As       0.00000000       0.00000000       0.00000000       0.00000000       0.00000000       0.00349319
As       0.00000000       0.00000000       5.58282828       0.00000000       0.00000000      -0.00349319
2
Properties=species:S:1:pos:R:3:forces:R:3 energy=-3.373673671863297 pbc="F F F"
As       0.00000000       0.00000000       0.00000000       0.00000000       0.00000000       0.00503270
As       0.00000000       0.00000000       5.64242424       0.00000000       0.00000000      -0.00503270
2
Properties=species:S:1:pos:R:3:forces:R:3 energy=-3.3733490947029017 pbc="F F F"
As       0.00000000       0.00000000       0.00000000       0.00000000       0.00000000       0.00574136
As       0.00000000       0.00000000       5.70202020       0.00000000       0.00000000      -0.00574136
2
Properties=species:S:1:pos:R:3:forces:R:3 energy=-3.3730017395641134 pbc="F F F"
As       0.00000000       0.00000000       0.00000000       0.00000000       0.00000000       0.00583111
As       0.00000000       0.00000000       5.76161616       0.00000000       0.00000000      -0.00583111
2
Properties=species:S:1:pos:R:3:forces:R:3 energy=-3.3726612822562454 pbc="F F F"
As       0.00000000       0.00000000       0.00000000       0.00000000       0.00000000       0.00555876
As       0.00000000       0.00000000       5.82121212       0.00000000       0.00000000      -0.00555876
2
Properties=species:S:1:pos:R:3:forces:R:3 energy=-3.3723419536500363 pbc="F F F"
As       0.00000000       0.00000000       0.00000000       0.00000000       0.00000000       0.00514421
As       0.00000000       0.00000000       5.88080808       0.00000000       0.00000000      -0.00514421
2
Properties=species:S:1:pos:R:3:forces:R:3 energy=-3.372047779738677 pbc="F F F"
As       0.00000000       0.00000000       0.00000000       0.00000000       0.00000000       0.00473611
As       0.00000000       0.00000000       5.94040404       0.00000000       0.00000000      -0.00473611
2
Properties=species:S:1:pos:R:3:forces:R:3 energy=-3.3717759234576965 pbc="F F F"
As       0.00000000       0.00000000       0.00000000       0.00000000       0.00000000       0.00440468
As       0.00000000       0.00000000       6.00000000       0.00000000       0.00000000      -0.00440468
