2
Properties=species:S:1:pos:R:3:forces:R:3 energy=90579.57634711324 pbc="F F F"
Au       0.00000000       0.00000000       0.00000000       0.00000000       0.00000000 -2301786.00000000
Au       0.00000000       0.00000000       0.10000000       0.00000000       0.00000000 2301786.00000000
2
Properties=species:S:1:pos:R:3:forces:R:3 energy=24736.347831488234 pbc="F F F"
Au       0.00000000       0.00000000       0.00000000       0.00000000       0.00000000 -469529.34375000
Au       0.00000000       0.00000000       0.15959596       0.00000000       0.00000000  469529.34375000
2
Properties=species:S:1:pos:R:3:forces:R:3 energy=8865.338065863234 pbc="F F F"
Au       0.00000000       0.00000000       0.00000000       0.00000000       0.00000000 -139813.29687500
Au       0.00000000       0.00000000       0.21919192       0.00000000       0.00000000  139813.29687500
2
Properties=species:S:1:pos:R:3:forces:R:3 energy=3685.42131781636 pbc="F F F"
Au       0.00000000       0.00000000       0.00000000       0.00000000       0.00000000  -50891.88671875
Au       0.00000000       0.00000000       0.27878788       0.00000000       0.00000000   50891.88671875
2
Properties=species:S:1:pos:R:3:forces:R:3 energy=1694.3085248507778 pbc="F F F"
Au       0.00000000       0.00000000       0.00000000       0.00000000       0.00000000  -20859.53906250
Au       0.00000000       0.00000000       0.33838384       0.00000000       0.00000000   20859.53906250
2
Properties=species:S:1:pos:R:3:forces:R:3 energy=847.5248334508633 pbc="F F F"
Au       0.00000000       0.00000000       0.00000000       0.00000000       0.00000000   -9271.16113281
Au       0.00000000       0.00000000       0.39797980       0.00000000       0.00000000    9271.16113281
2
Properties=species:S:1:pos:R:3:forces:R:3 energy=460.41616036466365 pbc="F F F"
Au       0.00000000       0.00000000       0.00000000       0.00000000       0.00000000   -4383.37158203
Au       0.00000000       0.00000000       0.45757576       0.00000000       0.00000000    4383.37158203
2
Properties=species:S:1:pos:R:3:forces:R:3 energy=273.3104169818031 pbc="F F F"
Au       0.00000000       0.00000000       0.00000000       0.00000000       0.00000000   -2172.91528320
Au       0.00000000       0.00000000       0.51717172       0.00000000       0.00000000    2172.91528320
2
Properties=species:S:1:pos:R:3:forces:R:3 energy=179.1625288362232 pbc="F F F"
Au       0.00000000       0.00000000       0.00000000       0.00000000       0.00000000   -1109.87890625
Au       0.00000000       0.00000000       0.57676768       0.00000000       0.00000000    1109.87890625
2
Properties=species:S:1:pos:R:3:forces:R:3 energy=130.82903280899748 pbc="F F F"
Au       0.00000000       0.00000000       0.00000000       0.00000000       0.00000000    -570.73486328
Au       0.00000000       0.00000000       0.63636364       0.00000000       0.00000000     570.73486328
2
Properties=species:S:1:pos:R:3:forces:R:3 energy=106.09833527853185 pbc="F F F"
Au       0.00000000       0.00000000       0.00000000       0.00000000       0.00000000    -289.73458862
Au       0.00000000       0.00000000       0.69595960       0.00000000       0.00000000     289.73458862
2
Properties=species:S:1:pos:R:3:forces:R:3 energy=93.51691454165328 pbc="F F F"
Au       0.00000000       0.00000000       0.00000000       0.00000000       0.00000000    -150.45501709
Au       0.00000000       0.00000000       0.75555556       0.00000000       0.00000000     150.45501709
2
Properties=species:S:1:pos:R:3:forces:R:3 energy=86.46327250945855 pbc="F F F"
Au       0.00000000       0.00000000       0.00000000       0.00000000       0.00000000     -97.36816406
Au       0.00000000       0.00000000       0.81515152       0.00000000       0.00000000      97.36816406
2
Properties=species:S:1:pos:R:3:forces:R:3 energy=80.93527297998929 pbc="F F F"
Au       0.00000000       0.00000000       0.00000000       0.00000000       0.00000000     -93.46804810
Au       0.00000000       0.00000000       0.87474747       0.00000000       0.00000000      93.46804810
2
Properties=species:S:1:pos:R:3:forces:R:3 energy=74.99546176445875 pbc="F F F"
Au       0.00000000       0.00000000       0.00000000       0.00000000       0.00000000    -106.51068115
Au       0.00000000       0.00000000       0.93434343       0.00000000       0.00000000     106.51068115
2
Properties=species:S:1:pos:R:3:forces:R:3 energy=68.2855930607749 pbc="F F F"
Au       0.00000000       0.00000000       0.00000000       0.00000000       0.00000000    -117.99420929
Au       0.00000000       0.00000000       0.99393939       0.00000000       0.00000000     117.99420929
2
Properties=species:S:1:pos:R:3:forces:R:3 energy=60.98791789935318 pbc="F F F"
Au       0.00000000       0.00000000       0.00000000       0.00000000       0.00000000    -126.42871094
Au       0.00000000       0.00000000       1.05353535       0.00000000       0.00000000     126.42871094
2
Properties=species:S:1:pos:R:3:forces:R:3 energy=53.26668958791681 pbc="F F F"
Au       0.00000000       0.00000000       0.00000000       0.00000000       0.00000000    -133.27864075
Au       0.00000000       0.00000000       1.11313131       0.00000000       0.00000000     133.27864075
2
Properties=species:S:1:pos:R:3:forces:R:3 energy=45.05175972814028 pbc="F F F"
Au       0.00000000       0.00000000       0.00000000       0.00000000       0.00000000    -140.19610596
Au       0.00000000       0.00000000       1.17272727       0.00000000       0.00000000     140.19610596
2
Properties=species:S:1:pos:R:3:forces:R:3 energy=36.87708304175524 pbc="F F F"
Au       0.00000000       0.00000000       0.00000000       0.00000000       0.00000000    -132.67117310
Au       0.00000000       0.00000000       1.23232323       0.00000000       0.00000000     132.67117310
2
Properties=species:S:1:pos:R:3:forces:R:3 energy=29.318577846770765 pbc="F F F"
Au       0.00000000       0.00000000       0.00000000       0.00000000       0.00000000    -120.55782318
Au       0.00000000       0.00000000       1.29191919       0.00000000       0.00000000     120.55782318
2
Properties=species:S:1:pos:R:3:forces:R:3 energy=22.57139273158167 pbc="F F F"
Au       0.00000000       0.00000000       0.00000000       0.00000000       0.00000000    -105.25547028
Au       0.00000000       0.00000000       1.35151515       0.00000000       0.00000000     105.25547028
2
Properties=species:S:1:pos:R:3:forces:R:3 energy=16.83288503864909 pbc="F F F"
Au       0.00000000       0.00000000       0.00000000       0.00000000       0.00000000     -87.01517487
Au       0.00000000       0.00000000       1.41111111       0.00000000       0.00000000      87.01517487
2
Properties=species:S:1:pos:R:3:forces:R:3 energy=12.215332936325842 pbc="F F F"
Au       0.00000000       0.00000000       0.00000000       0.00000000       0.00000000     -67.98768616
Au       0.00000000       0.00000000       1.47070707       0.00000000       0.00000000      67.98768616
2
Properties=species:S:1:pos:R:3:forces:R:3 energy=8.701614358675787 pbc="F F F"
Au       0.00000000       0.00000000       0.00000000       0.00000000       0.00000000     -50.36055374
Au       0.00000000       0.00000000       1.53030303       0.00000000       0.00000000      50.36055374
2
Properties=species:S:1:pos:R:3:forces:R:3 energy=6.142708385100483 pbc="F F F"
Au       0.00000000       0.00000000       0.00000000       0.00000000       0.00000000     -36.20764923
Au       0.00000000       0.00000000       1.58989899       0.00000000       0.00000000      36.20764923
2
Properties=species:S:1:pos:R:3:forces:R:3 energy=4.301195221779456 pbc="F F F"
Au       0.00000000       0.00000000       0.00000000       0.00000000       0.00000000     -26.27050972
Au       0.00000000       0.00000000       1.64949495       0.00000000       0.00000000      26.27050972
2
Properties=species:S:1:pos:R:3:forces:R:3 energy=2.940744905224246 pbc="F F F"
Au       0.00000000       0.00000000       0.00000000       0.00000000       0.00000000     -19.87806702
Au       0.00000000       0.00000000       1.70909091       0.00000000       0.00000000      19.87806702
2
Properties=species:S:1:pos:R:3:forces:R:3 energy=1.8852382147637197 pbc="F F F"
Au       0.00000000       0.00000000       0.00000000       0.00000000       0.00000000     -15.84255123
Au       0.00000000       0.00000000       1.76868687       0.00000000       0.00000000      15.84255123
2
Properties=species:S:1:pos:R:3:forces:R:3 energy=1.0257702309764765 pbc="F F F"
Au       0.00000000       0.00000000       0.00000000       0.00000000       0.00000000     -13.16205215
Au       0.00000000       0.00000000       1.82828283       0.00000000       0.00000000      13.16205215
2
Properties=species:S:1:pos:R:3:forces:R:3 energy=0.3027201228863341 pbc="F F F"
Au       0.00000000       0.00000000       0.00000000       0.00000000       0.00000000     -11.18037796
Au       0.00000000       0.00000000       1.88787879       0.00000000       0.00000000      11.18037796
2
Properties=species:S:1:pos:R:3:forces:R:3 energy=-0.3129187540240984 pbc="F F F"
Au       0.00000000       0.00000000       0.00000000       0.00000000       0.00000000      -9.51103210
Au       0.00000000       0.00000000       1.94747475       0.00000000       0.00000000       9.51103210
2
Properties=species:S:1:pos:R:3:forces:R:3 energy=-0.8332611590508474 pbc="F F F"
Au       0.00000000       0.00000000       0.00000000       0.00000000       0.00000000      -7.96442223
Au       0.00000000       0.00000000       2.00707071       0.00000000       0.00000000       7.96442223
2
Properties=species:S:1:pos:R:3:forces:R:3 energy=-1.263611358837614 pbc="F F F"
Au       0.00000000       0.00000000       0.00000000       0.00000000       0.00000000      -6.49069262
Au       0.00000000       0.00000000       2.06666667       0.00000000       0.00000000       6.49069262
2
Properties=species:S:1:pos:R:3:forces:R:3 energy=-1.608782615387397 pbc="F F F"
Au       0.00000000       0.00000000       0.00000000       0.00000000       0.00000000      -5.11213112
Au       0.00000000       0.00000000       2.12626263       0.00000000       0.00000000       5.11213112
2
Properties=species:S:1:pos:R:3:forces:R:3 energy=-1.875612992872383 pbc="F F F"
Au       0.00000000       0.00000000       0.00000000       0.00000000       0.00000000      -3.86782169
Au       0.00000000       0.00000000       2.18585859       0.00000000       0.00000000       3.86782169
2
Properties=species:S:1:pos:R:3:forces:R:3 energy=-2.0730254599987132 pbc="F F F"
Au       0.00000000       0.00000000       0.00000000       0.00000000       0.00000000      -2.78542233
Au       0.00000000       0.00000000       2.24545455       0.00000000       0.00000000       2.78542233
2
Properties=species:S:1:pos:R:3:forces:R:3 energy=-2.210977132395026 pbc="F F F"
Au       0.00000000       0.00000000       0.00000000       0.00000000       0.00000000      -1.87172866
Au       0.00000000       0.00000000       2.30505051       0.00000000       0.00000000       1.87172866
2
Properties=species:S:1:pos:R:3:forces:R:3 energy=-2.299232028815642 pbc="F F F"
Au       0.00000000       0.00000000       0.00000000       0.00000000       0.00000000      -1.11432803
Au       0.00000000       0.00000000       2.36464646       0.00000000       0.00000000       1.11432803
2
Properties=species:S:1:pos:R:3:forces:R:3 energy=-2.346462849318685 pbc="F F F"
Au       0.00000000       0.00000000       0.00000000       0.00000000       0.00000000      -0.49117181
Au       0.00000000       0.00000000       2.42424242       0.00000000       0.00000000       0.49117181
2
Properties=species:S:1:pos:R:3:forces:R:3 energy=-2.360023590465884 pbc="F F F"
Au       0.00000000       0.00000000       0.00000000       0.00000000       0.00000000       0.01858404
Au       0.00000000       0.00000000       2.48383838       0.00000000       0.00000000      -0.01858404
2
Properties=species:S:1:pos:R:3:forces:R:3 energy=-2.3462076242670173 pbc="F F F"
Au       0.00000000       0.00000000       0.00000000       0.00000000       0.00000000       0.42948395
Au       0.00000000       0.00000000       2.54343434       0.00000000       0.00000000      -0.42948395
2
Properties=species:S:1:pos:R:3:forces:R:3 energy=-2.3105955777333858 pbc="F F F"
Au       0.00000000       0.00000000       0.00000000       0.00000000       0.00000000       0.75163913
Au       0.00000000       0.00000000       2.60303030       0.00000000       0.00000000      -0.75163913
2
Properties=species:S:1:pos:R:3:forces:R:3 energy=-2.258179653335805 pbc="F F F"
Au       0.00000000       0.00000000       0.00000000       0.00000000       0.00000000       0.99533629
Au       0.00000000       0.00000000       2.66262626       0.00000000       0.00000000      -0.99533629
2
Properties=species:S:1:pos:R:3:forces:R:3 energy=-2.1932670556571643 pbc="F F F"
Au       0.00000000       0.00000000       0.00000000       0.00000000       0.00000000       1.17327738
Au       0.00000000       0.00000000       2.72222222       0.00000000       0.00000000      -1.17327738
2
Properties=species:S:1:pos:R:3:forces:R:3 energy=-2.119370310367008 pbc="F F F"
Au       0.00000000       0.00000000       0.00000000       0.00000000       0.00000000       1.29896569
Au       0.00000000       0.00000000       2.78181818       0.00000000       0.00000000      -1.29896569
2
Properties=species:S:1:pos:R:3:forces:R:3 energy=-2.0392608127277723 pbc="F F F"
Au       0.00000000       0.00000000       0.00000000       0.00000000       0.00000000       1.38319194
Au       0.00000000       0.00000000       2.84141414       0.00000000       0.00000000      -1.38319194
2
Properties=species:S:1:pos:R:3:forces:R:3 energy=-1.955211240412575 pbc="F F F"
Au       0.00000000       0.00000000       0.00000000       0.00000000       0.00000000       1.43175471
Au       0.00000000       0.00000000       2.90101010       0.00000000       0.00000000      -1.43175471
2
Properties=species:S:1:pos:R:3:forces:R:3 energy=-1.8692827848527984 pbc="F F F"
Au       0.00000000       0.00000000       0.00000000       0.00000000       0.00000000       1.44623458
Au       0.00000000       0.00000000       2.96060606       0.00000000       0.00000000      -1.44623458
2
Properties=species:S:1:pos:R:3:forces:R:3 energy=-1.7835059282233927 pbc="F F F"
Au       0.00000000       0.00000000       0.00000000       0.00000000       0.00000000       1.42675900
Au       0.00000000       0.00000000       3.02020202       0.00000000       0.00000000      -1.42675900
2
Properties=species:S:1:pos:R:3:forces:R:3 energy=-1.6998849412381065 pbc="F F F"
Au       0.00000000       0.00000000       0.00000000       0.00000000       0.00000000       1.37414944
Au       0.00000000       0.00000000       3.07979798       0.00000000       0.00000000      -1.37414944
2
Properties=species:S:1:pos:R:3:forces:R:3 energy=-1.6203174731274053 pbc="F F F"
Au       0.00000000       0.00000000       0.00000000       0.00000000       0.00000000       1.29156256
Au       0.00000000       0.00000000       3.13939394       0.00000000       0.00000000      -1.29156256
2
Properties=species:S:1:pos:R:3:forces:R:3 energy=-1.5464023624321095 pbc="F F F"
Au       0.00000000       0.00000000       0.00000000       0.00000000       0.00000000       1.18586850
Au       0.00000000       0.00000000       3.19898990       0.00000000       0.00000000      -1.18586850
2
Properties=species:S:1:pos:R:3:forces:R:3 energy=-1.4792351927159548 pbc="F F F"
Au       0.00000000       0.00000000       0.00000000       0.00000000       0.00000000       1.06686282
Au       0.00000000       0.00000000       3.25858586       0.00000000       0.00000000      -1.06686282
2
Properties=species:S:1:pos:R:3:forces:R:3 energy=-1.4192955736734196 pbc="F F F"
Au       0.00000000       0.00000000       0.00000000       0.00000000       0.00000000       0.94503897
Au       0.00000000       0.00000000       3.31818182       0.00000000       0.00000000      -0.94503897
2
Properties=species:S:1:pos:R:3:forces:R:3 energy=-1.3664612259029012 pbc="F F F"
Au       0.00000000       0.00000000       0.00000000       0.00000000       0.00000000       0.82985926
Au       0.00000000       0.00000000       3.37777778       0.00000000       0.00000000      -0.82985926
2
Properties=species:S:1:pos:R:3:forces:R:3 energy=-1.3200982084996649 pbc="F F F"
Au       0.00000000       0.00000000       0.00000000       0.00000000       0.00000000       0.72897309
Au       0.00000000       0.00000000       3.43737374       0.00000000       0.00000000      -0.72897309
2
Properties=species:S:1:pos:R:3:forces:R:3 energy=-1.27917730368881 pbc="F F F"
Au       0.00000000       0.00000000       0.00000000       0.00000000       0.00000000       0.64795607
Au       0.00000000       0.00000000       3.49696970       0.00000000       0.00000000      -0.64795607
2
Properties=species:S:1:pos:R:3:forces:R:3 energy=-1.242405346632905 pbc="F F F"
Au       0.00000000       0.00000000       0.00000000       0.00000000       0.00000000       0.59007227
Au       0.00000000       0.00000000       3.55656566       0.00000000       0.00000000      -0.59007227
2
Properties=species:S:1:pos:R:3:forces:R:3 energy=-1.20837156626649 pbc="F F F"
Au       0.00000000       0.00000000       0.00000000       0.00000000       0.00000000       0.55593771
Au       0.00000000       0.00000000       3.61616162       0.00000000       0.00000000      -0.55593771
2
Properties=species:S:1:pos:R:3:forces:R:3 energy=-1.175713319726794 pbc="F F F"
Au       0.00000000       0.00000000       0.00000000       0.00000000       0.00000000       0.54331839
Au       0.00000000       0.00000000       3.67575758       0.00000000       0.00000000      -0.54331839
2
Properties=species:S:1:pos:R:3:forces:R:3 energy=-1.1432797682122744 pbc="F F F"
Au       0.00000000       0.00000000       0.00000000       0.00000000       0.00000000       0.54739577
Au       0.00000000       0.00000000       3.73535354       0.00000000       0.00000000      -0.54739577
2
Properties=species:S:1:pos:R:3:forces:R:3 energy=-1.1102659319165489 pbc="F F F"
Au       0.00000000       0.00000000       0.00000000       0.00000000       0.00000000       0.56162578
Au       0.00000000       0.00000000       3.79494949       0.00000000       0.00000000      -0.56162578
2
Properties=species:S:1:pos:R:3:forces:R:3 energy=-1.076276849968751 pbc="F F F"
Au       0.00000000       0.00000000       0.00000000       0.00000000       0.00000000       0.57899255
Au       0.00000000       0.00000000       3.85454545       0.00000000       0.00000000      -0.57899255
2
Properties=species:S:1:pos:R:3:forces:R:3 energy=-1.0413172115612435 pbc="F F F"
Au       0.00000000       0.00000000       0.00000000       0.00000000       0.00000000       0.59327799
Au       0.00000000       0.00000000       3.91414141       0.00000000       0.00000000      -0.59327799
2
Properties=species:S:1:pos:R:3:forces:R:3 energy=-1.0057150176547953 pbc="F F F"
Au       0.00000000       0.00000000       0.00000000       0.00000000       0.00000000       0.59996545
Au       0.00000000       0.00000000       3.97373737       0.00000000       0.00000000      -0.59996545
2
Properties=species:S:1:pos:R:3:forces:R:3 energy=-0.9700069681662995 pbc="F F F"
Au       0.00000000       0.00000000       0.00000000       0.00000000       0.00000000       0.59660929
Au       0.00000000       0.00000000       4.03333333       0.00000000       0.00000000      -0.59660929
2
Properties=species:S:1:pos:R:3:forces:R:3 energy=-0.9348146130203963 pbc="F F F"
Au       0.00000000       0.00000000       0.00000000       0.00000000       0.00000000       0.58270717
Au       0.00000000       0.00000000       4.09292929       0.00000000       0.00000000      -0.58270717
2
Properties=species:S:1:pos:R:3:forces:R:3 energy=-0.9007430046624451 pbc="F F F"
Au       0.00000000       0.00000000       0.00000000       0.00000000       0.00000000       0.55925679
Au       0.00000000       0.00000000       4.15252525       0.00000000       0.00000000      -0.55925679
2
Properties=species:S:1:pos:R:3:forces:R:3 energy=-0.868307666529565 pbc="F F F"
Au       0.00000000       0.00000000       0.00000000       0.00000000       0.00000000       0.52819145
Au       0.00000000       0.00000000       4.21212121       0.00000000       0.00000000      -0.52819145
2
Properties=species:S:1:pos:R:3:forces:R:3 energy=-0.8378918400972439 pbc="F F F"
Au       0.00000000       0.00000000       0.00000000       0.00000000       0.00000000       0.49183980
Au       0.00000000       0.00000000       4.27171717       0.00000000       0.00000000      -0.49183980
2
Properties=species:S:1:pos:R:3:forces:R:3 energy=-0.8097433030744337 pbc="F F F"
Au       0.00000000       0.00000000       0.00000000       0.00000000       0.00000000       0.45250469
Au       0.00000000       0.00000000       4.33131313       0.00000000       0.00000000      -0.45250469
2
Properties=species:S:1:pos:R:3:forces:R:3 energy=-0.7839769660813675 pbc="F F F"
Au       0.00000000       0.00000000       0.00000000       0.00000000       0.00000000       0.41216320
Au       0.00000000       0.00000000       4.39090909       0.00000000       0.00000000      -0.41216320
2
Properties=species:S:1:pos:R:3:forces:R:3 energy=-0.7606057250968227 pbc="F F F"
Au       0.00000000       0.00000000       0.00000000       0.00000000       0.00000000       0.37233636
Au       0.00000000       0.00000000       4.45050505       0.00000000       0.00000000      -0.37233636
2
Properties=species:S:1:pos:R:3:forces:R:3 energy=-0.7395659995885313 pbc="F F F"
Au       0.00000000       0.00000000       0.00000000       0.00000000       0.00000000       0.33408704
Au       0.00000000       0.00000000       4.51010101       0.00000000       0.00000000      -0.33408704
2
Properties=species:S:1:pos:R:3:forces:R:3 energy=-0.7207395434773942 pbc="F F F"
Au       0.00000000       0.00000000       0.00000000       0.00000000       0.00000000       0.29812407
Au       0.00000000       0.00000000       4.56969697       0.00000000       0.00000000      -0.29812407
2
Properties=species:S:1:pos:R:3:forces:R:3 energy=-0.7039758939138058 pbc="F F F"
Au       0.00000000       0.00000000       0.00000000       0.00000000       0.00000000       0.26495609
Au       0.00000000       0.00000000       4.62929293       0.00000000       0.00000000      -0.26495609
2
Properties=species:S:1:pos:R:3:forces:R:3 energy=-0.6890957253928316 pbc="F F F"
Au       0.00000000       0.00000000       0.00000000       0.00000000       0.00000000       0.23498392
Au       0.00000000       0.00000000       4.68888889       0.00000000       0.00000000      -0.23498392
2
Properties=species:S:1:pos:R:3:forces:R:3 energy=-0.6758982043002059 pbc="F F F"
Au       0.00000000       0.00000000       0.00000000       0.00000000       0.00000000       0.20850563
Au       0.00000000       0.00000000       4.74848485       0.00000000       0.00000000      -0.20850563
2
Properties=species:S:1:pos:R:3:forces:R:3 energy=-0.6641712587502131 pbc="F F F"
Au       0.00000000       0.00000000       0.00000000       0.00000000       0.00000000       0.18565692
Au       0.00000000       0.00000000       4.80808081       0.00000000       0.00000000      -0.18565692
2
Properties=species:S:1:pos:R:3:forces:R:3 energy=-0.6536997107439313 pbc="F F F"
Au       0.00000000       0.00000000       0.00000000       0.00000000       0.00000000       0.16631065
Au       0.00000000       0.00000000       4.86767677       0.00000000       0.00000000      -0.16631065
2
Properties=species:S:1:pos:R:3:forces:R:3 energy=-0.6442863328639075 pbc="F F F"
Au       0.00000000       0.00000000       0.00000000       0.00000000       0.00000000       0.15006033
Au       0.00000000       0.00000000       4.92727273       0.00000000       0.00000000      -0.15006033
2
Properties=species:S:1:pos:R:3:forces:R:3 energy=-0.6357652203054305 pbc="F F F"
Au       0.00000000       0.00000000       0.00000000       0.00000000       0.00000000       0.13624948
Au       0.00000000       0.00000000       4.98686869       0.00000000       0.00000000      -0.13624948
2
Properties=species:S:1:pos:R:3:forces:R:3 energy=-0.6280141733875108 pbc="F F F"
Au       0.00000000       0.00000000       0.00000000       0.00000000       0.00000000       0.12410601
Au       0.00000000       0.00000000       5.04646465       0.00000000       0.00000000      -0.12410601
2
Properties=species:S:1:pos:R:3:forces:R:3 energy=-0.6209555536086853 pbc="F F F"
Au       0.00000000       0.00000000       0.00000000       0.00000000       0.00000000       0.11286858
Au       0.00000000       0.00000000       5.10606061       0.00000000       0.00000000      -0.11286858
2
Properties=species:S:1:pos:R:3:forces:R:3 energy=-0.614554395889294 pbc="F F F"
Au       0.00000000       0.00000000       0.00000000       0.00000000       0.00000000       0.10193126
Au       0.00000000       0.00000000       5.16565657       0.00000000       0.00000000      -0.10193126
2
Properties=species:S:1:pos:R:3:forces:R:3 energy=-0.6088071042798167 pbc="F F F"
Au       0.00000000       0.00000000       0.00000000       0.00000000       0.00000000       0.09092479
Au       0.00000000       0.00000000       5.22525253       0.00000000       0.00000000      -0.09092479
2
Properties=species:S:1:pos:R:3:forces:R:3 energy=-0.6037209041975355 pbc="F F F"
Au       0.00000000       0.00000000       0.00000000       0.00000000       0.00000000       0.07974628
Au       0.00000000       0.00000000       5.28484848       0.00000000       0.00000000      -0.07974628
2
Properties=species:S:1:pos:R:3:forces:R:3 energy=-0.599302519711916 pbc="F F F"
Au       0.00000000       0.00000000       0.00000000       0.00000000       0.00000000       0.06854211
Au       0.00000000       0.00000000       5.34444444       0.00000000       0.00000000      -0.06854211
2
Properties=species:S:1:pos:R:3:forces:R:3 energy=-0.5955453234919554 pbc="F F F"
Au       0.00000000       0.00000000       0.00000000       0.00000000       0.00000000       0.05762345
Au       0.00000000       0.00000000       5.40404040       0.00000000       0.00000000      -0.05762345
2
Properties=species:S:1:pos:R:3:forces:R:3 energy=-0.5924204317474677 pbc="F F F"
Au       0.00000000       0.00000000       0.00000000       0.00000000       0.00000000       0.04736907
Au       0.00000000       0.00000000       5.46363636       0.00000000       0.00000000      -0.04736907
2
Properties=species:S:1:pos:R:3:forces:R:3 energy=-0.5898795515808075 pbc="F F F"
Au       0.00000000       0.00000000       0.00000000       0.00000000       0.00000000       0.03812715
Au       0.00000000       0.00000000       5.52323232       0.00000000       0.00000000      -0.03812715
2
Properties=species:S:1:pos:R:3:forces:R:3 energy=-0.5878520944133646 pbc="F F F"
Au       0.00000000       0.00000000       0.00000000       0.00000000       0.00000000       0.03012232
Au       0.00000000       0.00000000       5.58282828       0.00000000       0.00000000      -0.03012232
2
Properties=species:S:1:pos:R:3:forces:R:3 energy=-0.5862626385625728 pbc="F F F"
Au       0.00000000       0.00000000       0.00000000       0.00000000       0.00000000       0.02344618
Au       0.00000000       0.00000000       5.64242424       0.00000000       0.00000000      -0.02344618
2
Properties=species:S:1:pos:R:3:forces:R:3 energy=-0.5850317070621335 pbc="F F F"
Au       0.00000000       0.00000000       0.00000000       0.00000000       0.00000000       0.01804685
Au       0.00000000       0.00000000       5.70202020       0.00000000       0.00000000      -0.01804685
2
Properties=species:S:1:pos:R:3:forces:R:3 energy=-0.5840886604802653 pbc="F F F"
Au       0.00000000       0.00000000       0.00000000       0.00000000       0.00000000       0.01380083
Au       0.00000000       0.00000000       5.76161616       0.00000000       0.00000000      -0.01380083
2
Properties=species:S:1:pos:R:3:forces:R:3 energy=-0.583367336277169 pbc="F F F"
Au       0.00000000       0.00000000       0.00000000       0.00000000       0.00000000       0.01055042
Au       0.00000000       0.00000000       5.82121212       0.00000000       0.00000000      -0.01055042
2
Properties=species:S:1:pos:R:3:forces:R:3 energy=-0.5828141524528704 pbc="F F F"
Au       0.00000000       0.00000000       0.00000000       0.00000000       0.00000000       0.00817012
Au       0.00000000       0.00000000       5.88080808       0.00000000       0.00000000      -0.00817012
2
Properties=species:S:1:pos:R:3:forces:R:3 energy=-0.5823773016834943 pbc="F F F"
Au       0.00000000       0.00000000       0.00000000       0.00000000       0.00000000       0.00659759
Au       0.00000000       0.00000000       5.94040404       0.00000000       0.00000000      -0.00659759
2
Properties=species:S:1:pos:R:3:forces:R:3 energy=-0.5820113709732232 pbc="F F F"
Au       0.00000000       0.00000000       0.00000000       0.00000000       0.00000000       0.00582827
Au       0.00000000       0.00000000       6.00000000       0.00000000       0.00000000      -0.00582827
