2
Properties=species:S:1:pos:R:3:forces:R:3 energy=347.92033405984415 pbc="F F F"
B        0.00000000       0.00000000       0.00000000       0.00000000       0.00000000   -3679.77783203
B        0.00000000       0.00000000       0.18000000       0.00000000       0.00000000    3679.77783203
2
Properties=species:S:1:pos:R:3:forces:R:3 energy=204.20376606826397 pbc="F F F"
B        0.00000000       0.00000000       0.00000000       0.00000000       0.00000000   -1585.87695312
B        0.00000000       0.00000000       0.23878788       0.00000000       0.00000000    1585.87695312
2
Properties=species:S:1:pos:R:3:forces:R:3 energy=135.9173433419396 pbc="F F F"
B        0.00000000       0.00000000       0.00000000       0.00000000       0.00000000    -863.77416992
B        0.00000000       0.00000000       0.29757576       0.00000000       0.00000000     863.77416992
2
Properties=species:S:1:pos:R:3:forces:R:3 energy=92.91490194202527 pbc="F F F"
B        0.00000000       0.00000000       0.00000000       0.00000000       0.00000000    -641.84954834
B        0.00000000       0.00000000       0.35636364       0.00000000       0.00000000     641.84954834
2
Properties=species:S:1:pos:R:3:forces:R:3 energy=62.032924876565545 pbc="F F F"
B        0.00000000       0.00000000       0.00000000       0.00000000       0.00000000    -407.41693115
B        0.00000000       0.00000000       0.41515152       0.00000000       0.00000000     407.41693115
2
Properties=species:S:1:pos:R:3:forces:R:3 energy=40.34299113297221 pbc="F F F"
B        0.00000000       0.00000000       0.00000000       0.00000000       0.00000000    -353.01159668
B        0.00000000       0.00000000       0.47393939       0.00000000       0.00000000     353.01159668
2
Properties=species:S:1:pos:R:3:forces:R:3 energy=22.064045271893182 pbc="F F F"
B        0.00000000       0.00000000       0.00000000       0.00000000       0.00000000    -236.71780396
B        0.00000000       0.00000000       0.53272727       0.00000000       0.00000000     236.71780396
2
Properties=species:S:1:pos:R:3:forces:R:3 energy=13.238328405664149 pbc="F F F"
B        0.00000000       0.00000000       0.00000000       0.00000000       0.00000000     -84.81992340
B        0.00000000       0.00000000       0.59151515       0.00000000       0.00000000      84.81992340
2
Properties=species:S:1:pos:R:3:forces:R:3 energy=9.130682591430011 pbc="F F F"
B        0.00000000       0.00000000       0.00000000       0.00000000       0.00000000     -72.29370880
B        0.00000000       0.00000000       0.65030303       0.00000000       0.00000000      72.29370880
2
Properties=species:S:1:pos:R:3:forces:R:3 energy=4.628899020805612 pbc="F F F"
B        0.00000000       0.00000000       0.00000000       0.00000000       0.00000000     -70.32869720
B        0.00000000       0.00000000       0.70909091       0.00000000       0.00000000      70.32869720
2
Properties=species:S:1:pos:R:3:forces:R:3 energy=1.6853901018397026 pbc="F F F"
B        0.00000000       0.00000000       0.00000000       0.00000000       0.00000000     -29.70174217
B        0.00000000       0.00000000       0.76787879       0.00000000       0.00000000      29.70174217
2
Properties=species:S:1:pos:R:3:forces:R:3 energy=0.731409500426734 pbc="F F F"
B        0.00000000       0.00000000       0.00000000       0.00000000       0.00000000      -7.27608824
B        0.00000000       0.00000000       0.82666667       0.00000000       0.00000000       7.27608824
2
Properties=species:S:1:pos:R:3:forces:R:3 energy=0.47891021415500906 pbc="F F F"
B        0.00000000       0.00000000       0.00000000       0.00000000       0.00000000      -2.56955624
B        0.00000000       0.00000000       0.88545455       0.00000000       0.00000000       2.56955624
2
Properties=species:S:1:pos:R:3:forces:R:3 energy=0.323561068844886 pbc="F F F"
B        0.00000000       0.00000000       0.00000000       0.00000000       0.00000000      -3.56115746
B        0.00000000       0.00000000       0.94424242       0.00000000       0.00000000       3.56115746
2
Properties=species:S:1:pos:R:3:forces:R:3 energy=-0.008414172283674769 pbc="F F F"
B        0.00000000       0.00000000       0.00000000       0.00000000       0.00000000      -7.99313068
B        0.00000000       0.00000000       1.00303030       0.00000000       0.00000000       7.99313068
2
Properties=species:S:1:pos:R:3:forces:R:3 energy=-0.6167210738720112 pbc="F F F"
B        0.00000000       0.00000000       0.00000000       0.00000000       0.00000000     -12.50479031
B        0.00000000       0.00000000       1.06181818       0.00000000       0.00000000      12.50479031
2
Properties=species:S:1:pos:R:3:forces:R:3 energy=-1.4388935228685602 pbc="F F F"
B        0.00000000       0.00000000       0.00000000       0.00000000       0.00000000     -15.03041363
B        0.00000000       0.00000000       1.12060606       0.00000000       0.00000000      15.03041363
2
Properties=species:S:1:pos:R:3:forces:R:3 energy=-2.330795441564521 pbc="F F F"
B        0.00000000       0.00000000       0.00000000       0.00000000       0.00000000     -14.89672756
B        0.00000000       0.00000000       1.17939394       0.00000000       0.00000000      14.89672756
2
Properties=species:S:1:pos:R:3:forces:R:3 energy=-3.1521332769662735 pbc="F F F"
B        0.00000000       0.00000000       0.00000000       0.00000000       0.00000000     -12.82398605
B        0.00000000       0.00000000       1.23818182       0.00000000       0.00000000      12.82398605
2
Properties=species:S:1:pos:R:3:forces:R:3 energy=-3.8227420615222734 pbc="F F F"
B        0.00000000       0.00000000       0.00000000       0.00000000       0.00000000      -9.91541386
B        0.00000000       0.00000000       1.29696970       0.00000000       0.00000000       9.91541386
2
Properties=species:S:1:pos:R:3:forces:R:3 energy=-4.311557669857378 pbc="F F F"
B        0.00000000       0.00000000       0.00000000       0.00000000       0.00000000      -6.66900253
B        0.00000000       0.00000000       1.35575758       0.00000000       0.00000000       6.66900253
2
Properties=species:S:1:pos:R:3:forces:R:3 energy=-4.603627109663402 pbc="F F F"
B        0.00000000       0.00000000       0.00000000       0.00000000       0.00000000      -3.27445412
B        0.00000000       0.00000000       1.41454545       0.00000000       0.00000000       3.27445412
2
Properties=species:S:1:pos:R:3:forces:R:3 energy=-4.7037327707893715 pbc="F F F"
B        0.00000000       0.00000000       0.00000000       0.00000000       0.00000000      -0.24786915
B        0.00000000       0.00000000       1.47333333       0.00000000       0.00000000       0.24786915
2
Properties=species:S:1:pos:R:3:forces:R:3 energy=-4.651058019295817 pbc="F F F"
B        0.00000000       0.00000000       0.00000000       0.00000000       0.00000000       1.86457992
B        0.00000000       0.00000000       1.53212121       0.00000000       0.00000000      -1.86457992
2
Properties=species:S:1:pos:R:3:forces:R:3 energy=-4.504080715770801 pbc="F F F"
B        0.00000000       0.00000000       0.00000000       0.00000000       0.00000000       2.99212193
B        0.00000000       0.00000000       1.59090909       0.00000000       0.00000000      -2.99212193
2
Properties=species:S:1:pos:R:3:forces:R:3 energy=-4.312200038685853 pbc="F F F"
B        0.00000000       0.00000000       0.00000000       0.00000000       0.00000000       3.45952654
B        0.00000000       0.00000000       1.64969697       0.00000000       0.00000000      -3.45952654
2
Properties=species:S:1:pos:R:3:forces:R:3 energy=-4.103007511118952 pbc="F F F"
B        0.00000000       0.00000000       0.00000000       0.00000000       0.00000000       3.63101220
B        0.00000000       0.00000000       1.70848485       0.00000000       0.00000000      -3.63101220
2
Properties=species:S:1:pos:R:3:forces:R:3 energy=-3.8868922539511277 pbc="F F F"
B        0.00000000       0.00000000       0.00000000       0.00000000       0.00000000       3.71465206
B        0.00000000       0.00000000       1.76727273       0.00000000       0.00000000      -3.71465206
2
Properties=species:S:1:pos:R:3:forces:R:3 energy=-3.6668315536079 pbc="F F F"
B        0.00000000       0.00000000       0.00000000       0.00000000       0.00000000       3.76723909
B        0.00000000       0.00000000       1.82606061       0.00000000       0.00000000      -3.76723909
2
Properties=species:S:1:pos:R:3:forces:R:3 energy=-3.4445546474806905 pbc="F F F"
B        0.00000000       0.00000000       0.00000000       0.00000000       0.00000000       3.78936982
B        0.00000000       0.00000000       1.88484848       0.00000000       0.00000000      -3.78936982
2
Properties=species:S:1:pos:R:3:forces:R:3 energy=-3.2219129882114554 pbc="F F F"
B        0.00000000       0.00000000       0.00000000       0.00000000       0.00000000       3.78016949
B        0.00000000       0.00000000       1.94363636       0.00000000       0.00000000      -3.78016949
2
Properties=species:S:1:pos:R:3:forces:R:3 energy=-3.0006244694187814 pbc="F F F"
B        0.00000000       0.00000000       0.00000000       0.00000000       0.00000000       3.74431443
B        0.00000000       0.00000000       2.00242424       0.00000000       0.00000000      -3.74431443
2
Properties=species:S:1:pos:R:3:forces:R:3 energy=-2.7820607547549647 pbc="F F F"
B        0.00000000       0.00000000       0.00000000       0.00000000       0.00000000       3.68818974
B        0.00000000       0.00000000       2.06121212       0.00000000       0.00000000      -3.68818974
2
Properties=species:S:1:pos:R:3:forces:R:3 energy=-2.5675332886492614 pbc="F F F"
B        0.00000000       0.00000000       0.00000000       0.00000000       0.00000000       3.60278654
B        0.00000000       0.00000000       2.12000000       0.00000000       0.00000000      -3.60278654
2
Properties=species:S:1:pos:R:3:forces:R:3 energy=-2.359673292874654 pbc="F F F"
B        0.00000000       0.00000000       0.00000000       0.00000000       0.00000000       3.45616388
B        0.00000000       0.00000000       2.17878788       0.00000000       0.00000000      -3.45616388
2
Properties=species:S:1:pos:R:3:forces:R:3 energy=-2.1627354845788482 pbc="F F F"
B        0.00000000       0.00000000       0.00000000       0.00000000       0.00000000       3.23073626
B        0.00000000       0.00000000       2.23757576       0.00000000       0.00000000      -3.23073626
2
Properties=species:S:1:pos:R:3:forces:R:3 energy=-1.981209782418767 pbc="F F F"
B        0.00000000       0.00000000       0.00000000       0.00000000       0.00000000       2.93481231
B        0.00000000       0.00000000       2.29636364       0.00000000       0.00000000      -2.93481231
2
Properties=species:S:1:pos:R:3:forces:R:3 energy=-1.8185675161668609 pbc="F F F"
B        0.00000000       0.00000000       0.00000000       0.00000000       0.00000000       2.59348607
B        0.00000000       0.00000000       2.35515152       0.00000000       0.00000000      -2.59348607
2
Properties=species:S:1:pos:R:3:forces:R:3 energy=-1.6765345453570415 pbc="F F F"
B        0.00000000       0.00000000       0.00000000       0.00000000       0.00000000       2.23904610
B        0.00000000       0.00000000       2.41393939       0.00000000       0.00000000      -2.23904610
2
Properties=species:S:1:pos:R:3:forces:R:3 energy=-1.5549791643531081 pbc="F F F"
B        0.00000000       0.00000000       0.00000000       0.00000000       0.00000000       1.90103006
B        0.00000000       0.00000000       2.47272727       0.00000000       0.00000000      -1.90103006
2
Properties=species:S:1:pos:R:3:forces:R:3 energy=-1.4523087743592842 pbc="F F F"
B        0.00000000       0.00000000       0.00000000       0.00000000       0.00000000       1.59883976
B        0.00000000       0.00000000       2.53151515       0.00000000       0.00000000      -1.59883976
2
Properties=species:S:1:pos:R:3:forces:R:3 energy=-1.3661361497249163 pbc="F F F"
B        0.00000000       0.00000000       0.00000000       0.00000000       0.00000000       1.34020877
B        0.00000000       0.00000000       2.59030303       0.00000000       0.00000000      -1.34020877
2
Properties=species:S:1:pos:R:3:forces:R:3 energy=-1.2938908282492714 pbc="F F F"
B        0.00000000       0.00000000       0.00000000       0.00000000       0.00000000       1.12439525
B        0.00000000       0.00000000       2.64909091       0.00000000       0.00000000      -1.12439525
2
Properties=species:S:1:pos:R:3:forces:R:3 energy=-1.233186052398302 pbc="F F F"
B        0.00000000       0.00000000       0.00000000       0.00000000       0.00000000       0.94670647
B        0.00000000       0.00000000       2.70787879       0.00000000       0.00000000      -0.94670647
2
Properties=species:S:1:pos:R:3:forces:R:3 energy=-1.181941091715117 pbc="F F F"
B        0.00000000       0.00000000       0.00000000       0.00000000       0.00000000       0.80174321
B        0.00000000       0.00000000       2.76666667       0.00000000       0.00000000      -0.80174321
2
Properties=species:S:1:pos:R:3:forces:R:3 energy=-1.1383725918990653 pbc="F F F"
B        0.00000000       0.00000000       0.00000000       0.00000000       0.00000000       0.68478429
B        0.00000000       0.00000000       2.82545455       0.00000000       0.00000000      -0.68478429
2
Properties=species:S:1:pos:R:3:forces:R:3 energy=-1.1009542475558587 pbc="F F F"
B        0.00000000       0.00000000       0.00000000       0.00000000       0.00000000       0.59193468
B        0.00000000       0.00000000       2.88424242       0.00000000       0.00000000      -0.59193468
2
Properties=species:S:1:pos:R:3:forces:R:3 energy=-1.068370962809976 pbc="F F F"
B        0.00000000       0.00000000       0.00000000       0.00000000       0.00000000       0.51976675
B        0.00000000       0.00000000       2.94303030       0.00000000       0.00000000      -0.51976675
2
Properties=species:S:1:pos:R:3:forces:R:3 energy=-1.0395009995895816 pbc="F F F"
B        0.00000000       0.00000000       0.00000000       0.00000000       0.00000000       0.46504179
B        0.00000000       0.00000000       3.00181818       0.00000000       0.00000000      -0.46504179
2
Properties=species:S:1:pos:R:3:forces:R:3 energy=-1.0134124842951904 pbc="F F F"
B        0.00000000       0.00000000       0.00000000       0.00000000       0.00000000       0.42461380
B        0.00000000       0.00000000       3.06060606       0.00000000       0.00000000      -0.42461380
2
Properties=species:S:1:pos:R:3:forces:R:3 energy=-0.9893549762023075 pbc="F F F"
B        0.00000000       0.00000000       0.00000000       0.00000000       0.00000000       0.39549422
B        0.00000000       0.00000000       3.11939394       0.00000000       0.00000000      -0.39549422
2
Properties=species:S:1:pos:R:3:forces:R:3 energy=-0.966743977173407 pbc="F F F"
B        0.00000000       0.00000000       0.00000000       0.00000000       0.00000000       0.37496293
B        0.00000000       0.00000000       3.17818182       0.00000000       0.00000000      -0.37496293
2
Properties=species:S:1:pos:R:3:forces:R:3 energy=-0.9451467209938743 pbc="F F F"
B        0.00000000       0.00000000       0.00000000       0.00000000       0.00000000       0.36066511
B        0.00000000       0.00000000       3.23696970       0.00000000       0.00000000      -0.36066511
2
Properties=species:S:1:pos:R:3:forces:R:3 energy=-0.9242551065276338 pbc="F F F"
B        0.00000000       0.00000000       0.00000000       0.00000000       0.00000000       0.35065573
B        0.00000000       0.00000000       3.29575758       0.00000000       0.00000000      -0.35065573
2
Properties=species:S:1:pos:R:3:forces:R:3 energy=-0.9038640596471839 pbc="F F F"
B        0.00000000       0.00000000       0.00000000       0.00000000       0.00000000       0.34340498
B        0.00000000       0.00000000       3.35454545       0.00000000       0.00000000      -0.34340498
2
Properties=species:S:1:pos:R:3:forces:R:3 energy=-0.8838473214924892 pbc="F F F"
B        0.00000000       0.00000000       0.00000000       0.00000000       0.00000000       0.33777350
B        0.00000000       0.00000000       3.41333333       0.00000000       0.00000000      -0.33777350
2
Properties=species:S:1:pos:R:3:forces:R:3 energy=-0.8641340412686057 pbc="F F F"
B        0.00000000       0.00000000       0.00000000       0.00000000       0.00000000       0.33296850
B        0.00000000       0.00000000       3.47212121       0.00000000       0.00000000      -0.33296850
2
Properties=species:S:1:pos:R:3:forces:R:3 energy=-0.8446925677820412 pbc="F F F"
B        0.00000000       0.00000000       0.00000000       0.00000000       0.00000000       0.32847843
B        0.00000000       0.00000000       3.53090909       0.00000000       0.00000000      -0.32847843
2
Properties=species:S:1:pos:R:3:forces:R:3 energy=-0.825513034797039 pbc="F F F"
B        0.00000000       0.00000000       0.00000000       0.00000000       0.00000000       0.32399225
B        0.00000000       0.00000000       3.58969697       0.00000000       0.00000000      -0.32399225
2
Properties=species:S:1:pos:R:3:forces:R:3 energy=-0.8066019980334425 pbc="F F F"
B        0.00000000       0.00000000       0.00000000       0.00000000       0.00000000       0.31933141
B        0.00000000       0.00000000       3.64848485       0.00000000       0.00000000      -0.31933141
2
Properties=species:S:1:pos:R:3:forces:R:3 energy=-0.7879732358765137 pbc="F F F"
B        0.00000000       0.00000000       0.00000000       0.00000000       0.00000000       0.31438440
B        0.00000000       0.00000000       3.70727273       0.00000000       0.00000000      -0.31438440
2
Properties=species:S:1:pos:R:3:forces:R:3 energy=-0.769645073335547 pbc="F F F"
B        0.00000000       0.00000000       0.00000000       0.00000000       0.00000000       0.30907711
B        0.00000000       0.00000000       3.76606061       0.00000000       0.00000000      -0.30907711
2
Properties=species:S:1:pos:R:3:forces:R:3 energy=-0.7516411731593199 pbc="F F F"
B        0.00000000       0.00000000       0.00000000       0.00000000       0.00000000       0.30335373
B        0.00000000       0.00000000       3.82484848       0.00000000       0.00000000      -0.30335373
2
Properties=species:S:1:pos:R:3:forces:R:3 energy=-0.7339872310701014 pbc="F F F"
B        0.00000000       0.00000000       0.00000000       0.00000000       0.00000000       0.29715866
B        0.00000000       0.00000000       3.88363636       0.00000000       0.00000000      -0.29715866
2
Properties=species:S:1:pos:R:3:forces:R:3 energy=-0.716713372036756 pbc="F F F"
B        0.00000000       0.00000000       0.00000000       0.00000000       0.00000000       0.29041004
B        0.00000000       0.00000000       3.94242424       0.00000000       0.00000000      -0.29041004
2
Properties=species:S:1:pos:R:3:forces:R:3 energy=-0.6998557225862213 pbc="F F F"
B        0.00000000       0.00000000       0.00000000       0.00000000       0.00000000       0.28297430
B        0.00000000       0.00000000       4.00121212       0.00000000       0.00000000      -0.28297430
2
Properties=species:S:1:pos:R:3:forces:R:3 energy=-0.683460460751531 pbc="F F F"
B        0.00000000       0.00000000       0.00000000       0.00000000       0.00000000       0.27462739
B        0.00000000       0.00000000       4.06000000       0.00000000       0.00000000      -0.27462739
2
Properties=species:S:1:pos:R:3:forces:R:3 energy=-0.6675901159491835 pbc="F F F"
B        0.00000000       0.00000000       0.00000000       0.00000000       0.00000000       0.26505697
B        0.00000000       0.00000000       4.11878788       0.00000000       0.00000000      -0.26505697
2
Properties=species:S:1:pos:R:3:forces:R:3 energy=-0.6523274757512294 pbc="F F F"
B        0.00000000       0.00000000       0.00000000       0.00000000       0.00000000       0.25388452
B        0.00000000       0.00000000       4.17757576       0.00000000       0.00000000      -0.25388452
2
Properties=species:S:1:pos:R:3:forces:R:3 energy=-0.6377778667008838 pbc="F F F"
B        0.00000000       0.00000000       0.00000000       0.00000000       0.00000000       0.24074283
B        0.00000000       0.00000000       4.23636364       0.00000000       0.00000000      -0.24074283
2
Properties=species:S:1:pos:R:3:forces:R:3 energy=-0.6240654483211485 pbc="F F F"
B        0.00000000       0.00000000       0.00000000       0.00000000       0.00000000       0.22537196
B        0.00000000       0.00000000       4.29515152       0.00000000       0.00000000      -0.22537196
2
Properties=species:S:1:pos:R:3:forces:R:3 energy=-0.6113243864596933 pbc="F F F"
B        0.00000000       0.00000000       0.00000000       0.00000000       0.00000000       0.20773576
B        0.00000000       0.00000000       4.35393939       0.00000000       0.00000000      -0.20773576
2
Properties=species:S:1:pos:R:3:forces:R:3 energy=-0.5996805841732442 pbc="F F F"
B        0.00000000       0.00000000       0.00000000       0.00000000       0.00000000       0.18809742
B        0.00000000       0.00000000       4.41272727       0.00000000       0.00000000      -0.18809742
2
Properties=species:S:1:pos:R:3:forces:R:3 energy=-0.5892366045043181 pbc="F F F"
B        0.00000000       0.00000000       0.00000000       0.00000000       0.00000000       0.16703206
B        0.00000000       0.00000000       4.47151515       0.00000000       0.00000000      -0.16703206
2
Properties=species:S:1:pos:R:3:forces:R:3 energy=-0.58005355442101 pbc="F F F"
B        0.00000000       0.00000000       0.00000000       0.00000000       0.00000000       0.14535302
B        0.00000000       0.00000000       4.53030303       0.00000000       0.00000000      -0.14535302
2
Properties=species:S:1:pos:R:3:forces:R:3 energy=-0.5721408589526235 pbc="F F F"
B        0.00000000       0.00000000       0.00000000       0.00000000       0.00000000       0.12396950
B        0.00000000       0.00000000       4.58909091       0.00000000       0.00000000      -0.12396950
2
Properties=species:S:1:pos:R:3:forces:R:3 energy=-0.5654556791904436 pbc="F F F"
B        0.00000000       0.00000000       0.00000000       0.00000000       0.00000000       0.10371318
B        0.00000000       0.00000000       4.64787879       0.00000000       0.00000000      -0.10371318
2
Properties=species:S:1:pos:R:3:forces:R:3 energy=-0.5599123781308992 pbc="F F F"
B        0.00000000       0.00000000       0.00000000       0.00000000       0.00000000       0.08519728
B        0.00000000       0.00000000       4.70666667       0.00000000       0.00000000      -0.08519728
2
Properties=species:S:1:pos:R:3:forces:R:3 energy=-0.5553975655966678 pbc="F F F"
B        0.00000000       0.00000000       0.00000000       0.00000000       0.00000000       0.06876151
B        0.00000000       0.00000000       4.76545455       0.00000000       0.00000000      -0.06876151
2
Properties=species:S:1:pos:R:3:forces:R:3 energy=-0.551785232460758 pbc="F F F"
B        0.00000000       0.00000000       0.00000000       0.00000000       0.00000000       0.05448329
B        0.00000000       0.00000000       4.82424242       0.00000000       0.00000000      -0.05448329
2
Properties=species:S:1:pos:R:3:forces:R:3 energy=-0.5489510735802552 pbc="F F F"
B        0.00000000       0.00000000       0.00000000       0.00000000       0.00000000       0.04227603
B        0.00000000       0.00000000       4.88303030       0.00000000       0.00000000      -0.04227603
2
Properties=species:S:1:pos:R:3:forces:R:3 energy=-0.5467772108184588 pbc="F F F"
B        0.00000000       0.00000000       0.00000000       0.00000000       0.00000000       0.03198331
B        0.00000000       0.00000000       4.94181818       0.00000000       0.00000000      -0.03198331
2
Properties=species:S:1:pos:R:3:forces:R:3 energy=-0.5451555649590772 pbc="F F F"
B        0.00000000       0.00000000       0.00000000       0.00000000       0.00000000       0.02347035
B        0.00000000       0.00000000       5.00060606       0.00000000       0.00000000      -0.02347035
2
Properties=species:S:1:pos:R:3:forces:R:3 energy=-0.5439845348731649 pbc="F F F"
B        0.00000000       0.00000000       0.00000000       0.00000000       0.00000000       0.01664524
B        0.00000000       0.00000000       5.05939394       0.00000000       0.00000000      -0.01664524
2
Properties=species:S:1:pos:R:3:forces:R:3 energy=-0.5431667266029542 pbc="F F F"
B        0.00000000       0.00000000       0.00000000       0.00000000       0.00000000       0.01144186
B        0.00000000       0.00000000       5.11818182       0.00000000       0.00000000      -0.01144186
2
Properties=species:S:1:pos:R:3:forces:R:3 energy=-0.5426090951418775 pbc="F F F"
B        0.00000000       0.00000000       0.00000000       0.00000000       0.00000000       0.00777576
B        0.00000000       0.00000000       5.17696970       0.00000000       0.00000000      -0.00777576
2
Properties=species:S:1:pos:R:3:forces:R:3 energy=-0.5422252654519143 pbc="F F F"
B        0.00000000       0.00000000       0.00000000       0.00000000       0.00000000       0.00549649
B        0.00000000       0.00000000       5.23575758       0.00000000       0.00000000      -0.00549649
2
Properties=species:S:1:pos:R:3:forces:R:3 energy=-0.5419402523179048 pbc="F F F"
B        0.00000000       0.00000000       0.00000000       0.00000000       0.00000000       0.00436729
B        0.00000000       0.00000000       5.29454545       0.00000000       0.00000000      -0.00436729
2
Properties=species:S:1:pos:R:3:forces:R:3 energy=-0.5416953497103226 pbc="F F F"
B        0.00000000       0.00000000       0.00000000       0.00000000       0.00000000       0.00407600
B        0.00000000       0.00000000       5.35333333       0.00000000       0.00000000      -0.00407600
2
Properties=species:S:1:pos:R:3:forces:R:3 energy=-0.541451457558004 pbc="F F F"
B        0.00000000       0.00000000       0.00000000       0.00000000       0.00000000       0.00427397
B        0.00000000       0.00000000       5.41212121       0.00000000       0.00000000      -0.00427397
2
Properties=species:S:1:pos:R:3:forces:R:3 energy=-0.5411897530403621 pbc="F F F"
B        0.00000000       0.00000000       0.00000000       0.00000000       0.00000000       0.00463249
B        0.00000000       0.00000000       5.47090909       0.00000000       0.00000000      -0.00463249
2
Properties=species:S:1:pos:R:3:forces:R:3 energy=-0.5409087580804607 pbc="F F F"
B        0.00000000       0.00000000       0.00000000       0.00000000       0.00000000       0.00489403
B        0.00000000       0.00000000       5.52969697       0.00000000       0.00000000      -0.00489403
2
Properties=species:S:1:pos:R:3:forces:R:3 energy=-0.5406192701783631 pbc="F F F"
B        0.00000000       0.00000000       0.00000000       0.00000000       0.00000000       0.00490591
B        0.00000000       0.00000000       5.58848485       0.00000000       0.00000000      -0.00490591
2
Properties=species:S:1:pos:R:3:forces:R:3 energy=-0.5403376963923731 pbc="F F F"
B        0.00000000       0.00000000       0.00000000       0.00000000       0.00000000       0.00462664
B        0.00000000       0.00000000       5.64727273       0.00000000       0.00000000      -0.00462664
2
Properties=species:S:1:pos:R:3:forces:R:3 energy=-0.5400800752535464 pbc="F F F"
B        0.00000000       0.00000000       0.00000000       0.00000000       0.00000000       0.00410784
B        0.00000000       0.00000000       5.70606061       0.00000000       0.00000000      -0.00410784
2
Properties=species:S:1:pos:R:3:forces:R:3 energy=-0.5398571935405748 pbc="F F F"
B        0.00000000       0.00000000       0.00000000       0.00000000       0.00000000       0.00345713
B        0.00000000       0.00000000       5.76484848       0.00000000       0.00000000      -0.00345713
2
Properties=species:S:1:pos:R:3:forces:R:3 energy=-0.5396736957739144 pbc="F F F"
B        0.00000000       0.00000000       0.00000000       0.00000000       0.00000000       0.00279782
B        0.00000000       0.00000000       5.82363636       0.00000000       0.00000000      -0.00279782
2
Properties=species:S:1:pos:R:3:forces:R:3 energy=-0.5395264574673548 pbc="F F F"
B        0.00000000       0.00000000       0.00000000       0.00000000       0.00000000       0.00223501
B        0.00000000       0.00000000       5.88242424       0.00000000       0.00000000      -0.00223501
2
Properties=species:S:1:pos:R:3:forces:R:3 energy=-0.5394076342703802 pbc="F F F"
B        0.00000000       0.00000000       0.00000000       0.00000000       0.00000000       0.00183597
B        0.00000000       0.00000000       5.94121212       0.00000000       0.00000000      -0.00183597
2
Properties=species:S:1:pos:R:3:forces:R:3 energy=-0.5393067997168314 pbc="F F F"
B        0.00000000       0.00000000       0.00000000       0.00000000       0.00000000       0.00162845
B        0.00000000       0.00000000       6.00000000       0.00000000       0.00000000      -0.00162845
