2
Properties=species:S:1:pos:R:3:forces:R:3 energy=10660.023169335882 pbc="F F F"
Ba       0.00000000       0.00000000       0.00000000       0.00000000       0.00000000 -180325.84375000
Ba       0.00000000       0.00000000       0.18000000       0.00000000       0.00000000  180325.84375000
2
Properties=species:S:1:pos:R:3:forces:R:3 energy=4285.587622460882 pbc="F F F"
Ba       0.00000000       0.00000000       0.00000000       0.00000000       0.00000000  -61320.37109375
Ba       0.00000000       0.00000000       0.23878788       0.00000000       0.00000000   61320.37109375
2
Properties=species:S:1:pos:R:3:forces:R:3 energy=1947.8288333983821 pbc="F F F"
Ba       0.00000000       0.00000000       0.00000000       0.00000000       0.00000000  -24564.83203125
Ba       0.00000000       0.00000000       0.29757576       0.00000000       0.00000000   24564.83203125
2
Properties=species:S:1:pos:R:3:forces:R:3 energy=966.1963260741634 pbc="F F F"
Ba       0.00000000       0.00000000       0.00000000       0.00000000       0.00000000  -10891.92578125
Ba       0.00000000       0.00000000       0.35636364       0.00000000       0.00000000   10891.92578125
2
Properties=species:S:1:pos:R:3:forces:R:3 energy=516.5502689452571 pbc="F F F"
Ba       0.00000000       0.00000000       0.00000000       0.00000000       0.00000000   -5183.16650391
Ba       0.00000000       0.00000000       0.41515152       0.00000000       0.00000000    5183.16650391
2
Properties=species:S:1:pos:R:3:forces:R:3 energy=297.08875161127276 pbc="F F F"
Ba       0.00000000       0.00000000       0.00000000       0.00000000       0.00000000   -2607.05468750
Ba       0.00000000       0.00000000       0.47393939       0.00000000       0.00000000    2607.05468750
2
Properties=species:S:1:pos:R:3:forces:R:3 energy=184.31014139445182 pbc="F F F"
Ba       0.00000000       0.00000000       0.00000000       0.00000000       0.00000000   -1374.30834961
Ba       0.00000000       0.00000000       0.53272727       0.00000000       0.00000000    1374.30834961
2
Properties=species:S:1:pos:R:3:forces:R:3 energy=123.73317607509188 pbc="F F F"
Ba       0.00000000       0.00000000       0.00000000       0.00000000       0.00000000    -754.58331299
Ba       0.00000000       0.00000000       0.59151515       0.00000000       0.00000000     754.58331299
2
Properties=species:S:1:pos:R:3:forces:R:3 energy=89.93084607067331 pbc="F F F"
Ba       0.00000000       0.00000000       0.00000000       0.00000000       0.00000000    -428.88525391
Ba       0.00000000       0.00000000       0.65030303       0.00000000       0.00000000     428.88525391
2
Properties=species:S:1:pos:R:3:forces:R:3 energy=70.46514022443387 pbc="F F F"
Ba       0.00000000       0.00000000       0.00000000       0.00000000       0.00000000    -250.54692078
Ba       0.00000000       0.00000000       0.70909091       0.00000000       0.00000000     250.54692078
2
Properties=species:S:1:pos:R:3:forces:R:3 energy=58.98476689255065 pbc="F F F"
Ba       0.00000000       0.00000000       0.00000000       0.00000000       0.00000000    -149.23292542
Ba       0.00000000       0.00000000       0.76787879       0.00000000       0.00000000     149.23292542
2
Properties=species:S:1:pos:R:3:forces:R:3 energy=52.10482310825085 pbc="F F F"
Ba       0.00000000       0.00000000       0.00000000       0.00000000       0.00000000     -90.00267792
Ba       0.00000000       0.00000000       0.82666667       0.00000000       0.00000000      90.00267792
2
Properties=species:S:1:pos:R:3:forces:R:3 energy=47.93218145547077 pbc="F F F"
Ba       0.00000000       0.00000000       0.00000000       0.00000000       0.00000000     -55.05438232
Ba       0.00000000       0.00000000       0.88545455       0.00000000       0.00000000      55.05438232
2
Properties=species:S:1:pos:R:3:forces:R:3 energy=45.33805774185162 pbc="F F F"
Ba       0.00000000       0.00000000       0.00000000       0.00000000       0.00000000     -35.22836685
Ba       0.00000000       0.00000000       0.94424242       0.00000000       0.00000000      35.22836685
2
Properties=species:S:1:pos:R:3:forces:R:3 energy=43.59201376031412 pbc="F F F"
Ba       0.00000000       0.00000000       0.00000000       0.00000000       0.00000000     -25.54848099
Ba       0.00000000       0.00000000       1.00303030       0.00000000       0.00000000      25.54848099
2
Properties=species:S:1:pos:R:3:forces:R:3 energy=42.20751159017993 pbc="F F F"
Ba       0.00000000       0.00000000       0.00000000       0.00000000       0.00000000     -22.34541321
Ba       0.00000000       0.00000000       1.06181818       0.00000000       0.00000000      22.34541321
2
Properties=species:S:1:pos:R:3:forces:R:3 energy=40.89888383735804 pbc="F F F"
Ba       0.00000000       0.00000000       0.00000000       0.00000000       0.00000000     -22.55474854
Ba       0.00000000       0.00000000       1.12060606       0.00000000       0.00000000      22.55474854
2
Properties=species:S:1:pos:R:3:forces:R:3 energy=39.5255665370047 pbc="F F F"
Ba       0.00000000       0.00000000       0.00000000       0.00000000       0.00000000     -24.30511856
Ba       0.00000000       0.00000000       1.17939394       0.00000000       0.00000000      24.30511856
2
Properties=species:S:1:pos:R:3:forces:R:3 energy=38.03938391536621 pbc="F F F"
Ba       0.00000000       0.00000000       0.00000000       0.00000000       0.00000000     -26.15048599
Ba       0.00000000       0.00000000       1.23818182       0.00000000       0.00000000      26.15048599
2
Properties=species:S:1:pos:R:3:forces:R:3 energy=36.47260070725778 pbc="F F F"
Ba       0.00000000       0.00000000       0.00000000       0.00000000       0.00000000     -26.94162178
Ba       0.00000000       0.00000000       1.29696970       0.00000000       0.00000000      26.94162178
2
Properties=species:S:1:pos:R:3:forces:R:3 energy=34.88767116165482 pbc="F F F"
Ba       0.00000000       0.00000000       0.00000000       0.00000000       0.00000000     -26.98380089
Ba       0.00000000       0.00000000       1.35575758       0.00000000       0.00000000      26.98380089
2
Properties=species:S:1:pos:R:3:forces:R:3 energy=33.27710707851005 pbc="F F F"
Ba       0.00000000       0.00000000       0.00000000       0.00000000       0.00000000     -28.17947006
Ba       0.00000000       0.00000000       1.41454545       0.00000000       0.00000000      28.17947006
2
Properties=species:S:1:pos:R:3:forces:R:3 energy=31.518880145007266 pbc="F F F"
Ba       0.00000000       0.00000000       0.00000000       0.00000000       0.00000000     -32.13856888
Ba       0.00000000       0.00000000       1.47333333       0.00000000       0.00000000      32.13856888
2
Properties=species:S:1:pos:R:3:forces:R:3 energy=29.447419199063063 pbc="F F F"
Ba       0.00000000       0.00000000       0.00000000       0.00000000       0.00000000     -38.64951324
Ba       0.00000000       0.00000000       1.53212121       0.00000000       0.00000000      38.64951324
2
Properties=species:S:1:pos:R:3:forces:R:3 energy=26.958234023882518 pbc="F F F"
Ba       0.00000000       0.00000000       0.00000000       0.00000000       0.00000000     -45.96976471
Ba       0.00000000       0.00000000       1.59090909       0.00000000       0.00000000      45.96976471
2
Properties=species:S:1:pos:R:3:forces:R:3 energy=24.07215482456973 pbc="F F F"
Ba       0.00000000       0.00000000       0.00000000       0.00000000       0.00000000     -51.83165359
Ba       0.00000000       0.00000000       1.64969697       0.00000000       0.00000000      51.83165359
2
Properties=species:S:1:pos:R:3:forces:R:3 energy=20.9142122010662 pbc="F F F"
Ba       0.00000000       0.00000000       0.00000000       0.00000000       0.00000000     -55.17385864
Ba       0.00000000       0.00000000       1.70848485       0.00000000       0.00000000      55.17385864
2
Properties=species:S:1:pos:R:3:forces:R:3 energy=17.63441540368003 pbc="F F F"
Ba       0.00000000       0.00000000       0.00000000       0.00000000       0.00000000     -55.98955917
Ba       0.00000000       0.00000000       1.76727273       0.00000000       0.00000000      55.98955917
2
Properties=species:S:1:pos:R:3:forces:R:3 energy=14.380690845341004 pbc="F F F"
Ba       0.00000000       0.00000000       0.00000000       0.00000000       0.00000000     -54.28267670
Ba       0.00000000       0.00000000       1.82606061       0.00000000       0.00000000      54.28267670
2
Properties=species:S:1:pos:R:3:forces:R:3 energy=11.299502987930072 pbc="F F F"
Ba       0.00000000       0.00000000       0.00000000       0.00000000       0.00000000     -50.17374802
Ba       0.00000000       0.00000000       1.88484848       0.00000000       0.00000000      50.17374802
2
Properties=species:S:1:pos:R:3:forces:R:3 energy=8.517694450603774 pbc="F F F"
Ba       0.00000000       0.00000000       0.00000000       0.00000000       0.00000000     -44.22506332
Ba       0.00000000       0.00000000       1.94363636       0.00000000       0.00000000      44.22506332
2
Properties=species:S:1:pos:R:3:forces:R:3 energy=6.121016423081781 pbc="F F F"
Ba       0.00000000       0.00000000       0.00000000       0.00000000       0.00000000     -37.16777802
Ba       0.00000000       0.00000000       2.00242424       0.00000000       0.00000000      37.16777802
2
Properties=species:S:1:pos:R:3:forces:R:3 energy=4.163755054196708 pbc="F F F"
Ba       0.00000000       0.00000000       0.00000000       0.00000000       0.00000000     -29.28968620
Ba       0.00000000       0.00000000       2.06121212       0.00000000       0.00000000      29.28968620
2
Properties=species:S:1:pos:R:3:forces:R:3 energy=2.6859967843896095 pbc="F F F"
Ba       0.00000000       0.00000000       0.00000000       0.00000000       0.00000000     -21.01621246
Ba       0.00000000       0.00000000       2.12000000       0.00000000       0.00000000      21.01621246
2
Properties=species:S:1:pos:R:3:forces:R:3 energy=1.6715188562690746 pbc="F F F"
Ba       0.00000000       0.00000000       0.00000000       0.00000000       0.00000000     -13.81326294
Ba       0.00000000       0.00000000       2.17878788       0.00000000       0.00000000      13.81326294
2
Properties=species:S:1:pos:R:3:forces:R:3 energy=1.0169082166772225 pbc="F F F"
Ba       0.00000000       0.00000000       0.00000000       0.00000000       0.00000000      -8.85117626
Ba       0.00000000       0.00000000       2.23757576       0.00000000       0.00000000       8.85117626
2
Properties=species:S:1:pos:R:3:forces:R:3 energy=0.5898322106829765 pbc="F F F"
Ba       0.00000000       0.00000000       0.00000000       0.00000000       0.00000000      -5.96486235
Ba       0.00000000       0.00000000       2.29636364       0.00000000       0.00000000       5.96486235
2
Properties=species:S:1:pos:R:3:forces:R:3 energy=0.2894519112074916 pbc="F F F"
Ba       0.00000000       0.00000000       0.00000000       0.00000000       0.00000000      -4.41881371
Ba       0.00000000       0.00000000       2.35515152       0.00000000       0.00000000       4.41881371
2
Properties=species:S:1:pos:R:3:forces:R:3 energy=0.056228466667824606 pbc="F F F"
Ba       0.00000000       0.00000000       0.00000000       0.00000000       0.00000000      -3.59858513
Ba       0.00000000       0.00000000       2.41393939       0.00000000       0.00000000       3.59858513
2
Properties=species:S:1:pos:R:3:forces:R:3 energy=-0.1403532876748264 pbc="F F F"
Ba       0.00000000       0.00000000       0.00000000       0.00000000       0.00000000      -3.12593842
Ba       0.00000000       0.00000000       2.47272727       0.00000000       0.00000000       3.12593842
2
Properties=species:S:1:pos:R:3:forces:R:3 energy=-0.31406428775814754 pbc="F F F"
Ba       0.00000000       0.00000000       0.00000000       0.00000000       0.00000000      -2.79755545
Ba       0.00000000       0.00000000       2.53151515       0.00000000       0.00000000       2.79755545
2
Properties=species:S:1:pos:R:3:forces:R:3 energy=-0.47022277386927325 pbc="F F F"
Ba       0.00000000       0.00000000       0.00000000       0.00000000       0.00000000      -2.51928782
Ba       0.00000000       0.00000000       2.59030303       0.00000000       0.00000000       2.51928782
2
Properties=species:S:1:pos:R:3:forces:R:3 energy=-0.610557275680908 pbc="F F F"
Ba       0.00000000       0.00000000       0.00000000       0.00000000       0.00000000      -2.25643373
Ba       0.00000000       0.00000000       2.64909091       0.00000000       0.00000000       2.25643373
2
Properties=species:S:1:pos:R:3:forces:R:3 energy=-0.7356618543885423 pbc="F F F"
Ba       0.00000000       0.00000000       0.00000000       0.00000000       0.00000000      -2.00087500
Ba       0.00000000       0.00000000       2.70787879       0.00000000       0.00000000       2.00087500
2
Properties=species:S:1:pos:R:3:forces:R:3 energy=-0.8459657782199821 pbc="F F F"
Ba       0.00000000       0.00000000       0.00000000       0.00000000       0.00000000      -1.75320542
Ba       0.00000000       0.00000000       2.76666667       0.00000000       0.00000000       1.75320542
2
Properties=species:S:1:pos:R:3:forces:R:3 energy=-0.9419909074310151 pbc="F F F"
Ba       0.00000000       0.00000000       0.00000000       0.00000000       0.00000000      -1.51543880
Ba       0.00000000       0.00000000       2.82545455       0.00000000       0.00000000       1.51543880
2
Properties=species:S:1:pos:R:3:forces:R:3 energy=-1.0243794992360087 pbc="F F F"
Ba       0.00000000       0.00000000       0.00000000       0.00000000       0.00000000      -1.28967917
Ba       0.00000000       0.00000000       2.88424242       0.00000000       0.00000000       1.28967917
2
Properties=species:S:1:pos:R:3:forces:R:3 energy=-1.093920587251211 pbc="F F F"
Ba       0.00000000       0.00000000       0.00000000       0.00000000       0.00000000      -1.07899344
Ba       0.00000000       0.00000000       2.94303030       0.00000000       0.00000000       1.07899344
2
Properties=species:S:1:pos:R:3:forces:R:3 energy=-1.1516278629985086 pbc="F F F"
Ba       0.00000000       0.00000000       0.00000000       0.00000000       0.00000000      -0.88797981
Ba       0.00000000       0.00000000       3.00181818       0.00000000       0.00000000       0.88797981
2
Properties=species:S:1:pos:R:3:forces:R:3 energy=-1.1988174998207453 pbc="F F F"
Ba       0.00000000       0.00000000       0.00000000       0.00000000       0.00000000      -0.72206002
Ba       0.00000000       0.00000000       3.06060606       0.00000000       0.00000000       0.72206002
2
Properties=species:S:1:pos:R:3:forces:R:3 energy=-1.2371042347261842 pbc="F F F"
Ba       0.00000000       0.00000000       0.00000000       0.00000000       0.00000000      -0.58561599
Ba       0.00000000       0.00000000       3.11939394       0.00000000       0.00000000       0.58561599
2
Properties=species:S:1:pos:R:3:forces:R:3 energy=-1.2682730339247315 pbc="F F F"
Ba       0.00000000       0.00000000       0.00000000       0.00000000       0.00000000      -0.47967562
Ba       0.00000000       0.00000000       3.17818182       0.00000000       0.00000000       0.47967562
2
Properties=species:S:1:pos:R:3:forces:R:3 energy=-1.2940240926542497 pbc="F F F"
Ba       0.00000000       0.00000000       0.00000000       0.00000000       0.00000000      -0.40016982
Ba       0.00000000       0.00000000       3.23696970       0.00000000       0.00000000       0.40016982
2
Properties=species:S:1:pos:R:3:forces:R:3 energy=-1.3156643577130471 pbc="F F F"
Ba       0.00000000       0.00000000       0.00000000       0.00000000       0.00000000      -0.33794937
Ba       0.00000000       0.00000000       3.29575758       0.00000000       0.00000000       0.33794937
2
Properties=species:S:1:pos:R:3:forces:R:3 energy=-1.3338636230937357 pbc="F F F"
Ba       0.00000000       0.00000000       0.00000000       0.00000000       0.00000000      -0.28111458
Ba       0.00000000       0.00000000       3.35454545       0.00000000       0.00000000       0.28111458
2
Properties=species:S:1:pos:R:3:forces:R:3 energy=-1.3486071923919434 pbc="F F F"
Ba       0.00000000       0.00000000       0.00000000       0.00000000       0.00000000      -0.21886933
Ba       0.00000000       0.00000000       3.41333333       0.00000000       0.00000000       0.21886933
2
Properties=species:S:1:pos:R:3:forces:R:3 energy=-1.3593638376875787 pbc="F F F"
Ba       0.00000000       0.00000000       0.00000000       0.00000000       0.00000000      -0.14489669
Ba       0.00000000       0.00000000       3.47212121       0.00000000       0.00000000       0.14489669
2
Properties=species:S:1:pos:R:3:forces:R:3 energy=-1.3653980445283103 pbc="F F F"
Ba       0.00000000       0.00000000       0.00000000       0.00000000       0.00000000      -0.05856778
Ba       0.00000000       0.00000000       3.53090909       0.00000000       0.00000000       0.05856778
2
Properties=species:S:1:pos:R:3:forces:R:3 energy=-1.366082368442555 pbc="F F F"
Ba       0.00000000       0.00000000       0.00000000       0.00000000       0.00000000       0.03623898
Ba       0.00000000       0.00000000       3.58969697       0.00000000       0.00000000      -0.03623898
2
Properties=species:S:1:pos:R:3:forces:R:3 energy=-1.361088490584714 pbc="F F F"
Ba       0.00000000       0.00000000       0.00000000       0.00000000       0.00000000       0.13356087
Ba       0.00000000       0.00000000       3.64848485       0.00000000       0.00000000      -0.13356087
2
Properties=species:S:1:pos:R:3:forces:R:3 energy=-1.350442392629302 pbc="F F F"
Ba       0.00000000       0.00000000       0.00000000       0.00000000       0.00000000       0.22770341
Ba       0.00000000       0.00000000       3.70727273       0.00000000       0.00000000      -0.22770341
2
Properties=species:S:1:pos:R:3:forces:R:3 energy=-1.3344568312920035 pbc="F F F"
Ba       0.00000000       0.00000000       0.00000000       0.00000000       0.00000000       0.31473556
Ba       0.00000000       0.00000000       3.76606061       0.00000000       0.00000000      -0.31473556
2
Properties=species:S:1:pos:R:3:forces:R:3 energy=-1.3136099647618598 pbc="F F F"
Ba       0.00000000       0.00000000       0.00000000       0.00000000       0.00000000       0.39302585
Ba       0.00000000       0.00000000       3.82484848       0.00000000       0.00000000      -0.39302585
2
Properties=species:S:1:pos:R:3:forces:R:3 energy=-1.2884107837482326 pbc="F F F"
Ba       0.00000000       0.00000000       0.00000000       0.00000000       0.00000000       0.46297091
Ba       0.00000000       0.00000000       3.88363636       0.00000000       0.00000000      -0.46297091
2
Properties=species:S:1:pos:R:3:forces:R:3 energy=-1.2593090317673923 pbc="F F F"
Ba       0.00000000       0.00000000       0.00000000       0.00000000       0.00000000       0.52609175
Ba       0.00000000       0.00000000       3.94242424       0.00000000       0.00000000      -0.52609175
2
Properties=species:S:1:pos:R:3:forces:R:3 energy=-1.2266607044603355 pbc="F F F"
Ba       0.00000000       0.00000000       0.00000000       0.00000000       0.00000000       0.58381623
Ba       0.00000000       0.00000000       4.00121212       0.00000000       0.00000000      -0.58381623
2
Properties=species:S:1:pos:R:3:forces:R:3 energy=-1.1907661505520957 pbc="F F F"
Ba       0.00000000       0.00000000       0.00000000       0.00000000       0.00000000       0.63641125
Ba       0.00000000       0.00000000       4.06000000       0.00000000       0.00000000      -0.63641125
2
Properties=species:S:1:pos:R:3:forces:R:3 energy=-1.1519601203828156 pbc="F F F"
Ba       0.00000000       0.00000000       0.00000000       0.00000000       0.00000000       0.68253541
Ba       0.00000000       0.00000000       4.11878788       0.00000000       0.00000000      -0.68253541
2
Properties=species:S:1:pos:R:3:forces:R:3 energy=-1.1106940870343212 pbc="F F F"
Ba       0.00000000       0.00000000       0.00000000       0.00000000       0.00000000       0.71956998
Ba       0.00000000       0.00000000       4.17757576       0.00000000       0.00000000      -0.71956998
2
Properties=species:S:1:pos:R:3:forces:R:3 energy=-1.0675937723485946 pbc="F F F"
Ba       0.00000000       0.00000000       0.00000000       0.00000000       0.00000000       0.74445480
Ba       0.00000000       0.00000000       4.23636364       0.00000000       0.00000000      -0.74445480
2
Properties=species:S:1:pos:R:3:forces:R:3 energy=-1.0234520380414234 pbc="F F F"
Ba       0.00000000       0.00000000       0.00000000       0.00000000       0.00000000       0.75465322
Ba       0.00000000       0.00000000       4.29515152       0.00000000       0.00000000      -0.75465322
2
Properties=species:S:1:pos:R:3:forces:R:3 energy=-0.9791797429419503 pbc="F F F"
Ba       0.00000000       0.00000000       0.00000000       0.00000000       0.00000000       0.74888301
Ba       0.00000000       0.00000000       4.35393939       0.00000000       0.00000000      -0.74888301
2
Properties=species:S:1:pos:R:3:forces:R:3 energy=-0.9357080892026056 pbc="F F F"
Ba       0.00000000       0.00000000       0.00000000       0.00000000       0.00000000       0.72756857
Ba       0.00000000       0.00000000       4.41272727       0.00000000       0.00000000      -0.72756857
2
Properties=species:S:1:pos:R:3:forces:R:3 energy=-0.8938942972081347 pbc="F F F"
Ba       0.00000000       0.00000000       0.00000000       0.00000000       0.00000000       0.69306773
Ba       0.00000000       0.00000000       4.47151515       0.00000000       0.00000000      -0.69306773
2
Properties=species:S:1:pos:R:3:forces:R:3 energy=-0.8543935736825979 pbc="F F F"
Ba       0.00000000       0.00000000       0.00000000       0.00000000       0.00000000       0.64976633
Ba       0.00000000       0.00000000       4.53030303       0.00000000       0.00000000      -0.64976633
2
Properties=species:S:1:pos:R:3:forces:R:3 energy=-0.817548389298154 pbc="F F F"
Ba       0.00000000       0.00000000       0.00000000       0.00000000       0.00000000       0.60392642
Ba       0.00000000       0.00000000       4.58909091       0.00000000       0.00000000      -0.60392642
2
Properties=species:S:1:pos:R:3:forces:R:3 energy=-0.7832936188055537 pbc="F F F"
Ba       0.00000000       0.00000000       0.00000000       0.00000000       0.00000000       0.56284851
Ba       0.00000000       0.00000000       4.64787879       0.00000000       0.00000000      -0.56284851
2
Properties=species:S:1:pos:R:3:forces:R:3 energy=-0.7511476669299532 pbc="F F F"
Ba       0.00000000       0.00000000       0.00000000       0.00000000       0.00000000       0.53304166
Ba       0.00000000       0.00000000       4.70666667       0.00000000       0.00000000      -0.53304166
2
Properties=species:S:1:pos:R:3:forces:R:3 energy=-0.7203242419114428 pbc="F F F"
Ba       0.00000000       0.00000000       0.00000000       0.00000000       0.00000000       0.51824117
Ba       0.00000000       0.00000000       4.76545455       0.00000000       0.00000000      -0.51824117
2
Properties=species:S:1:pos:R:3:forces:R:3 energy=-0.6899126810756463 pbc="F F F"
Ba       0.00000000       0.00000000       0.00000000       0.00000000       0.00000000       0.51873410
Ba       0.00000000       0.00000000       4.82424242       0.00000000       0.00000000      -0.51873410
2
Properties=species:S:1:pos:R:3:forces:R:3 energy=-0.6590774032833359 pbc="F F F"
Ba       0.00000000       0.00000000       0.00000000       0.00000000       0.00000000       0.53235352
Ba       0.00000000       0.00000000       4.88303030       0.00000000       0.00000000      -0.53235352
2
Properties=species:S:1:pos:R:3:forces:R:3 energy=-0.6271273140013504 pbc="F F F"
Ba       0.00000000       0.00000000       0.00000000       0.00000000       0.00000000       0.55588502
Ba       0.00000000       0.00000000       4.94181818       0.00000000       0.00000000      -0.55588502
2
Properties=species:S:1:pos:R:3:forces:R:3 energy=-0.593593907943396 pbc="F F F"
Ba       0.00000000       0.00000000       0.00000000       0.00000000       0.00000000       0.58570057
Ba       0.00000000       0.00000000       5.00060606       0.00000000       0.00000000      -0.58570057
2
Properties=species:S:1:pos:R:3:forces:R:3 energy=-0.5582153238679041 pbc="F F F"
Ba       0.00000000       0.00000000       0.00000000       0.00000000       0.00000000       0.61784142
Ba       0.00000000       0.00000000       5.05939394       0.00000000       0.00000000      -0.61784142
2
Properties=species:S:1:pos:R:3:forces:R:3 energy=-0.5209907489146 pbc="F F F"
Ba       0.00000000       0.00000000       0.00000000       0.00000000       0.00000000       0.64793438
Ba       0.00000000       0.00000000       5.11818182       0.00000000       0.00000000      -0.64793438
2
Properties=species:S:1:pos:R:3:forces:R:3 energy=-0.4821669277895301 pbc="F F F"
Ba       0.00000000       0.00000000       0.00000000       0.00000000       0.00000000       0.67138213
Ba       0.00000000       0.00000000       5.17696970       0.00000000       0.00000000      -0.67138213
2
Properties=species:S:1:pos:R:3:forces:R:3 energy=-0.44227115421976576 pbc="F F F"
Ba       0.00000000       0.00000000       0.00000000       0.00000000       0.00000000       0.68378413
Ba       0.00000000       0.00000000       5.23575758       0.00000000       0.00000000      -0.68378413
2
Properties=species:S:1:pos:R:3:forces:R:3 energy=-0.40205971314773553 pbc="F F F"
Ba       0.00000000       0.00000000       0.00000000       0.00000000       0.00000000       0.68151915
Ba       0.00000000       0.00000000       5.29454545       0.00000000       0.00000000      -0.68151915
2
Properties=species:S:1:pos:R:3:forces:R:3 energy=-0.3624730005543402 pbc="F F F"
Ba       0.00000000       0.00000000       0.00000000       0.00000000       0.00000000       0.66227061
Ba       0.00000000       0.00000000       5.35333333       0.00000000       0.00000000      -0.66227061
2
Properties=species:S:1:pos:R:3:forces:R:3 energy=-0.32454096716596614 pbc="F F F"
Ba       0.00000000       0.00000000       0.00000000       0.00000000       0.00000000       0.62541729
Ba       0.00000000       0.00000000       5.41212121       0.00000000       0.00000000      -0.62541729
2
Properties=species:S:1:pos:R:3:forces:R:3 energy=-0.28926137040838207 pbc="F F F"
Ba       0.00000000       0.00000000       0.00000000       0.00000000       0.00000000       0.57216889
Ba       0.00000000       0.00000000       5.47090909       0.00000000       0.00000000      -0.57216889
2
Properties=species:S:1:pos:R:3:forces:R:3 energy=-0.2575299397779672 pbc="F F F"
Ba       0.00000000       0.00000000       0.00000000       0.00000000       0.00000000       0.50534648
Ba       0.00000000       0.00000000       5.52969697       0.00000000       0.00000000      -0.50534648
2
Properties=species:S:1:pos:R:3:forces:R:3 energy=-0.23003057184710474 pbc="F F F"
Ba       0.00000000       0.00000000       0.00000000       0.00000000       0.00000000       0.42907411
Ba       0.00000000       0.00000000       5.58848485       0.00000000       0.00000000      -0.42907411
2
Properties=species:S:1:pos:R:3:forces:R:3 energy=-0.2071828615587667 pbc="F F F"
Ba       0.00000000       0.00000000       0.00000000       0.00000000       0.00000000       0.34835193
Ba       0.00000000       0.00000000       5.64727273       0.00000000       0.00000000      -0.34835193
2
Properties=species:S:1:pos:R:3:forces:R:3 energy=-0.18906569284084668 pbc="F F F"
Ba       0.00000000       0.00000000       0.00000000       0.00000000       0.00000000       0.26838279
Ba       0.00000000       0.00000000       5.70606061       0.00000000       0.00000000      -0.26838279
2
Properties=species:S:1:pos:R:3:forces:R:3 energy=-0.17548307949292663 pbc="F F F"
Ba       0.00000000       0.00000000       0.00000000       0.00000000       0.00000000       0.19435522
Ba       0.00000000       0.00000000       5.76484848       0.00000000       0.00000000      -0.19435522
2
Properties=species:S:1:pos:R:3:forces:R:3 energy=-0.16598748996329038 pbc="F F F"
Ba       0.00000000       0.00000000       0.00000000       0.00000000       0.00000000       0.13095927
Ba       0.00000000       0.00000000       5.82363636       0.00000000       0.00000000      -0.13095927
2
Properties=species:S:1:pos:R:3:forces:R:3 energy=-0.15981948164712778 pbc="F F F"
Ba       0.00000000       0.00000000       0.00000000       0.00000000       0.00000000       0.08210532
Ba       0.00000000       0.00000000       5.88242424       0.00000000       0.00000000      -0.08210532
2
Properties=species:S:1:pos:R:3:forces:R:3 energy=-0.15598961564934763 pbc="F F F"
Ba       0.00000000       0.00000000       0.00000000       0.00000000       0.00000000       0.05107680
Ba       0.00000000       0.00000000       5.94121212       0.00000000       0.00000000      -0.05107680
2
Properties=species:S:1:pos:R:3:forces:R:3 energy=-0.15340800130339968 pbc="F F F"
Ba       0.00000000       0.00000000       0.00000000       0.00000000       0.00000000       0.04043269
Ba       0.00000000       0.00000000       6.00000000       0.00000000       0.00000000      -0.04043269
