2
Properties=species:S:1:pos:R:3:forces:R:3 energy=201.10701310056967 pbc="F F F"
Be       0.00000000       0.00000000       0.00000000       0.00000000       0.00000000   -2491.41162109
Be       0.00000000       0.00000000       0.18000000       0.00000000       0.00000000    2491.41162109
2
Properties=species:S:1:pos:R:3:forces:R:3 energy=103.83200394529622 pbc="F F F"
Be       0.00000000       0.00000000       0.00000000       0.00000000       0.00000000   -1063.46520996
Be       0.00000000       0.00000000       0.23878788       0.00000000       0.00000000    1063.46520996
2
Properties=species:S:1:pos:R:3:forces:R:3 energy=59.65068757273163 pbc="F F F"
Be       0.00000000       0.00000000       0.00000000       0.00000000       0.00000000    -517.51629639
Be       0.00000000       0.00000000       0.29757576       0.00000000       0.00000000     517.51629639
2
Properties=species:S:1:pos:R:3:forces:R:3 energy=37.269008047322984 pbc="F F F"
Be       0.00000000       0.00000000       0.00000000       0.00000000       0.00000000    -273.76068115
Be       0.00000000       0.00000000       0.35636364       0.00000000       0.00000000     273.76068115
2
Properties=species:S:1:pos:R:3:forces:R:3 energy=25.12957325821244 pbc="F F F"
Be       0.00000000       0.00000000       0.00000000       0.00000000       0.00000000    -152.31881714
Be       0.00000000       0.00000000       0.41515152       0.00000000       0.00000000     152.31881714
2
Properties=species:S:1:pos:R:3:forces:R:3 energy=18.271865325267026 pbc="F F F"
Be       0.00000000       0.00000000       0.00000000       0.00000000       0.00000000     -87.56081390
Be       0.00000000       0.00000000       0.47393939       0.00000000       0.00000000      87.56081390
2
Properties=species:S:1:pos:R:3:forces:R:3 energy=14.250131173127325 pbc="F F F"
Be       0.00000000       0.00000000       0.00000000       0.00000000       0.00000000     -53.05534744
Be       0.00000000       0.00000000       0.53272727       0.00000000       0.00000000      53.05534744
2
Properties=species:S:1:pos:R:3:forces:R:3 energy=11.678076459038891 pbc="F F F"
Be       0.00000000       0.00000000       0.00000000       0.00000000       0.00000000     -36.86066437
Be       0.00000000       0.00000000       0.59151515       0.00000000       0.00000000      36.86066437
2
Properties=species:S:1:pos:R:3:forces:R:3 energy=9.694913819849528 pbc="F F F"
Be       0.00000000       0.00000000       0.00000000       0.00000000       0.00000000     -31.94552994
Be       0.00000000       0.00000000       0.65030303       0.00000000       0.00000000      31.94552994
2
Properties=species:S:1:pos:R:3:forces:R:3 energy=7.829840048608986 pbc="F F F"
Be       0.00000000       0.00000000       0.00000000       0.00000000       0.00000000     -31.75994110
Be       0.00000000       0.00000000       0.70909091       0.00000000       0.00000000      31.75994110
2
Properties=species:S:1:pos:R:3:forces:R:3 energy=5.982706518176494 pbc="F F F"
Be       0.00000000       0.00000000       0.00000000       0.00000000       0.00000000     -30.56685066
Be       0.00000000       0.00000000       0.76787879       0.00000000       0.00000000      30.56685066
2
Properties=species:S:1:pos:R:3:forces:R:3 energy=4.307886006191403 pbc="F F F"
Be       0.00000000       0.00000000       0.00000000       0.00000000       0.00000000     -25.82847786
Be       0.00000000       0.00000000       0.82666667       0.00000000       0.00000000      25.82847786
2
Properties=species:S:1:pos:R:3:forces:R:3 energy=3.0010191653175777 pbc="F F F"
Be       0.00000000       0.00000000       0.00000000       0.00000000       0.00000000     -18.29013062
Be       0.00000000       0.00000000       0.88545455       0.00000000       0.00000000      18.29013062
2
Properties=species:S:1:pos:R:3:forces:R:3 energy=2.1759080784446616 pbc="F F F"
Be       0.00000000       0.00000000       0.00000000       0.00000000       0.00000000      -9.90878296
Be       0.00000000       0.00000000       0.94424242       0.00000000       0.00000000       9.90878296
2
Properties=species:S:1:pos:R:3:forces:R:3 energy=1.777366500415704 pbc="F F F"
Be       0.00000000       0.00000000       0.00000000       0.00000000       0.00000000      -4.35278416
Be       0.00000000       0.00000000       1.00303030       0.00000000       0.00000000       4.35278416
2
Properties=species:S:1:pos:R:3:forces:R:3 energy=1.5971150084520351 pbc="F F F"
Be       0.00000000       0.00000000       0.00000000       0.00000000       0.00000000      -2.19160700
Be       0.00000000       0.00000000       1.06181818       0.00000000       0.00000000       2.19160700
2
Properties=species:S:1:pos:R:3:forces:R:3 energy=1.481290993492282 pbc="F F F"
Be       0.00000000       0.00000000       0.00000000       0.00000000       0.00000000      -1.99483693
Be       0.00000000       0.00000000       1.12060606       0.00000000       0.00000000       1.99483693
2
Properties=species:S:1:pos:R:3:forces:R:3 energy=1.3427135016121556 pbc="F F F"
Be       0.00000000       0.00000000       0.00000000       0.00000000       0.00000000      -2.82988906
Be       0.00000000       0.00000000       1.17939394       0.00000000       0.00000000       2.82988906
2
Properties=species:S:1:pos:R:3:forces:R:3 energy=1.1402828212490466 pbc="F F F"
Be       0.00000000       0.00000000       0.00000000       0.00000000       0.00000000      -4.08408499
Be       0.00000000       0.00000000       1.23818182       0.00000000       0.00000000       4.08408499
2
Properties=species:S:1:pos:R:3:forces:R:3 energy=0.8661529016596244 pbc="F F F"
Be       0.00000000       0.00000000       0.00000000       0.00000000       0.00000000      -5.15024233
Be       0.00000000       0.00000000       1.29696970       0.00000000       0.00000000       5.15024233
2
Properties=species:S:1:pos:R:3:forces:R:3 energy=0.550346198776039 pbc="F F F"
Be       0.00000000       0.00000000       0.00000000       0.00000000       0.00000000      -5.44584846
Be       0.00000000       0.00000000       1.35575758       0.00000000       0.00000000       5.44584846
2
Properties=species:S:1:pos:R:3:forces:R:3 energy=0.24060573654414028 pbc="F F F"
Be       0.00000000       0.00000000       0.00000000       0.00000000       0.00000000      -5.00342655
Be       0.00000000       0.00000000       1.41454545       0.00000000       0.00000000       5.00342655
2
Properties=species:S:1:pos:R:3:forces:R:3 energy=-0.032184161726564936 pbc="F F F"
Be       0.00000000       0.00000000       0.00000000       0.00000000       0.00000000      -4.25945854
Be       0.00000000       0.00000000       1.47333333       0.00000000       0.00000000       4.25945854
2
Properties=species:S:1:pos:R:3:forces:R:3 energy=-0.26000789129802915 pbc="F F F"
Be       0.00000000       0.00000000       0.00000000       0.00000000       0.00000000      -3.49734545
Be       0.00000000       0.00000000       1.53212121       0.00000000       0.00000000       3.49734545
2
Properties=species:S:1:pos:R:3:forces:R:3 energy=-0.44429648515042713 pbc="F F F"
Be       0.00000000       0.00000000       0.00000000       0.00000000       0.00000000      -2.78110814
Be       0.00000000       0.00000000       1.59090909       0.00000000       0.00000000       2.78110814
2
Properties=species:S:1:pos:R:3:forces:R:3 energy=-0.5883275071522724 pbc="F F F"
Be       0.00000000       0.00000000       0.00000000       0.00000000       0.00000000      -2.13325143
Be       0.00000000       0.00000000       1.64969697       0.00000000       0.00000000       2.13325143
2
Properties=species:S:1:pos:R:3:forces:R:3 energy=-0.6970885767138326 pbc="F F F"
Be       0.00000000       0.00000000       0.00000000       0.00000000       0.00000000      -1.58507240
Be       0.00000000       0.00000000       1.70848485       0.00000000       0.00000000       1.58507240
2
Properties=species:S:1:pos:R:3:forces:R:3 energy=-0.7768207606452546 pbc="F F F"
Be       0.00000000       0.00000000       0.00000000       0.00000000       0.00000000      -1.14480996
Be       0.00000000       0.00000000       1.76727273       0.00000000       0.00000000       1.14480996
2
Properties=species:S:1:pos:R:3:forces:R:3 energy=-0.8336006432877847 pbc="F F F"
Be       0.00000000       0.00000000       0.00000000       0.00000000       0.00000000      -0.80196851
Be       0.00000000       0.00000000       1.82606061       0.00000000       0.00000000       0.80196851
2
Properties=species:S:1:pos:R:3:forces:R:3 energy=-0.8727511206010732 pbc="F F F"
Be       0.00000000       0.00000000       0.00000000       0.00000000       0.00000000      -0.54265249
Be       0.00000000       0.00000000       1.88484848       0.00000000       0.00000000       0.54265249
2
Properties=species:S:1:pos:R:3:forces:R:3 energy=-0.8987361211935883 pbc="F F F"
Be       0.00000000       0.00000000       0.00000000       0.00000000       0.00000000      -0.35119396
Be       0.00000000       0.00000000       1.94363636       0.00000000       0.00000000       0.35119396
2
Properties=species:S:1:pos:R:3:forces:R:3 energy=-0.9150118891582876 pbc="F F F"
Be       0.00000000       0.00000000       0.00000000       0.00000000       0.00000000      -0.20940125
Be       0.00000000       0.00000000       2.00242424       0.00000000       0.00000000       0.20940125
2
Properties=species:S:1:pos:R:3:forces:R:3 energy=-0.924020249507919 pbc="F F F"
Be       0.00000000       0.00000000       0.00000000       0.00000000       0.00000000      -0.10155204
Be       0.00000000       0.00000000       2.06121212       0.00000000       0.00000000       0.10155204
2
Properties=species:S:1:pos:R:3:forces:R:3 energy=-0.9273479755084071 pbc="F F F"
Be       0.00000000       0.00000000       0.00000000       0.00000000       0.00000000      -0.01397487
Be       0.00000000       0.00000000       2.12000000       0.00000000       0.00000000       0.01397487
2
Properties=species:S:1:pos:R:3:forces:R:3 energy=-0.9258244388151299 pbc="F F F"
Be       0.00000000       0.00000000       0.00000000       0.00000000       0.00000000       0.06531497
Be       0.00000000       0.00000000       2.17878788       0.00000000       0.00000000      -0.06531497
2
Properties=species:S:1:pos:R:3:forces:R:3 energy=-0.9196486574846973 pbc="F F F"
Be       0.00000000       0.00000000       0.00000000       0.00000000       0.00000000       0.14542867
Be       0.00000000       0.00000000       2.23757576       0.00000000       0.00000000      -0.14542867
2
Properties=species:S:1:pos:R:3:forces:R:3 energy=-0.9086343926988305 pbc="F F F"
Be       0.00000000       0.00000000       0.00000000       0.00000000       0.00000000       0.22989486
Be       0.00000000       0.00000000       2.29636364       0.00000000       0.00000000      -0.22989486
2
Properties=species:S:1:pos:R:3:forces:R:3 energy=-0.892617465891172 pbc="F F F"
Be       0.00000000       0.00000000       0.00000000       0.00000000       0.00000000       0.31420469
Be       0.00000000       0.00000000       2.35515152       0.00000000       0.00000000      -0.31420469
2
Properties=species:S:1:pos:R:3:forces:R:3 energy=-0.8718896979113344 pbc="F F F"
Be       0.00000000       0.00000000       0.00000000       0.00000000       0.00000000       0.38871306
Be       0.00000000       0.00000000       2.41393939       0.00000000       0.00000000      -0.38871306
2
Properties=species:S:1:pos:R:3:forces:R:3 energy=-0.8471258406623973 pbc="F F F"
Be       0.00000000       0.00000000       0.00000000       0.00000000       0.00000000       0.45323595
Be       0.00000000       0.00000000       2.47272727       0.00000000       0.00000000      -0.45323595
2
Properties=species:S:1:pos:R:3:forces:R:3 energy=-0.8184659479967226 pbc="F F F"
Be       0.00000000       0.00000000       0.00000000       0.00000000       0.00000000       0.52389610
Be       0.00000000       0.00000000       2.53151515       0.00000000       0.00000000      -0.52389610
2
Properties=species:S:1:pos:R:3:forces:R:3 energy=-0.7853902062431038 pbc="F F F"
Be       0.00000000       0.00000000       0.00000000       0.00000000       0.00000000       0.60063076
Be       0.00000000       0.00000000       2.59030303       0.00000000       0.00000000      -0.60063076
2
Properties=species:S:1:pos:R:3:forces:R:3 energy=-0.748168320607721 pbc="F F F"
Be       0.00000000       0.00000000       0.00000000       0.00000000       0.00000000       0.66161102
Be       0.00000000       0.00000000       2.64909091       0.00000000       0.00000000      -0.66161102
2
Properties=species:S:1:pos:R:3:forces:R:3 energy=-0.7081018503025343 pbc="F F F"
Be       0.00000000       0.00000000       0.00000000       0.00000000       0.00000000       0.69753134
Be       0.00000000       0.00000000       2.70787879       0.00000000       0.00000000      -0.69753134
2
Properties=species:S:1:pos:R:3:forces:R:3 energy=-0.6665426194894515 pbc="F F F"
Be       0.00000000       0.00000000       0.00000000       0.00000000       0.00000000       0.71371734
Be       0.00000000       0.00000000       2.76666667       0.00000000       0.00000000      -0.71371734
2
Properties=species:S:1:pos:R:3:forces:R:3 energy=-0.6244309839144137 pbc="F F F"
Be       0.00000000       0.00000000       0.00000000       0.00000000       0.00000000       0.71726054
Be       0.00000000       0.00000000       2.82545455       0.00000000       0.00000000      -0.71726054
2
Properties=species:S:1:pos:R:3:forces:R:3 energy=-0.5823763447827002 pbc="F F F"
Be       0.00000000       0.00000000       0.00000000       0.00000000       0.00000000       0.71223497
Be       0.00000000       0.00000000       2.88424242       0.00000000       0.00000000      -0.71223497
2
Properties=species:S:1:pos:R:3:forces:R:3 energy=-0.5408256219926894 pbc="F F F"
Be       0.00000000       0.00000000       0.00000000       0.00000000       0.00000000       0.70025331
Be       0.00000000       0.00000000       2.94303030       0.00000000       0.00000000      -0.70025331
2
Properties=species:S:1:pos:R:3:forces:R:3 energy=-0.5001668544799719 pbc="F F F"
Be       0.00000000       0.00000000       0.00000000       0.00000000       0.00000000       0.68196607
Be       0.00000000       0.00000000       3.00181818       0.00000000       0.00000000      -0.68196607
2
Properties=species:S:1:pos:R:3:forces:R:3 energy=-0.4607535037097809 pbc="F F F"
Be       0.00000000       0.00000000       0.00000000       0.00000000       0.00000000       0.65804130
Be       0.00000000       0.00000000       3.06060606       0.00000000       0.00000000      -0.65804130
2
Properties=species:S:1:pos:R:3:forces:R:3 energy=-0.4228882660865544 pbc="F F F"
Be       0.00000000       0.00000000       0.00000000       0.00000000       0.00000000       0.62950253
Be       0.00000000       0.00000000       3.11939394       0.00000000       0.00000000      -0.62950253
2
Properties=species:S:1:pos:R:3:forces:R:3 energy=-0.38680365907198844 pbc="F F F"
Be       0.00000000       0.00000000       0.00000000       0.00000000       0.00000000       0.59767383
Be       0.00000000       0.00000000       3.17818182       0.00000000       0.00000000      -0.59767383
2
Properties=species:S:1:pos:R:3:forces:R:3 energy=-0.3526529235457762 pbc="F F F"
Be       0.00000000       0.00000000       0.00000000       0.00000000       0.00000000       0.56397694
Be       0.00000000       0.00000000       3.23696970       0.00000000       0.00000000      -0.56397694
2
Properties=species:S:1:pos:R:3:forces:R:3 energy=-0.32050479516025976 pbc="F F F"
Be       0.00000000       0.00000000       0.00000000       0.00000000       0.00000000       0.52971470
Be       0.00000000       0.00000000       3.29575758       0.00000000       0.00000000      -0.52971470
2
Properties=species:S:1:pos:R:3:forces:R:3 energy=-0.29036137663658296 pbc="F F F"
Be       0.00000000       0.00000000       0.00000000       0.00000000       0.00000000       0.49591702
Be       0.00000000       0.00000000       3.35454545       0.00000000       0.00000000      -0.49591702
2
Properties=species:S:1:pos:R:3:forces:R:3 energy=-0.2621745831070442 pbc="F F F"
Be       0.00000000       0.00000000       0.00000000       0.00000000       0.00000000       0.46324691
Be       0.00000000       0.00000000       3.41333333       0.00000000       0.00000000      -0.46324691
2
Properties=species:S:1:pos:R:3:forces:R:3 energy=-0.23586674700526372 pbc="F F F"
Be       0.00000000       0.00000000       0.00000000       0.00000000       0.00000000       0.43199208
Be       0.00000000       0.00000000       3.47212121       0.00000000       0.00000000      -0.43199208
2
Properties=species:S:1:pos:R:3:forces:R:3 energy=-0.2113554870422951 pbc="F F F"
Be       0.00000000       0.00000000       0.00000000       0.00000000       0.00000000       0.40212947
Be       0.00000000       0.00000000       3.53090909       0.00000000       0.00000000      -0.40212947
2
Properties=species:S:1:pos:R:3:forces:R:3 energy=-0.1885636248763843 pbc="F F F"
Be       0.00000000       0.00000000       0.00000000       0.00000000       0.00000000       0.37341911
Be       0.00000000       0.00000000       3.58969697       0.00000000       0.00000000      -0.37341911
2
Properties=species:S:1:pos:R:3:forces:R:3 energy=-0.1674341646557388 pbc="F F F"
Be       0.00000000       0.00000000       0.00000000       0.00000000       0.00000000       0.34552637
Be       0.00000000       0.00000000       3.64848485       0.00000000       0.00000000      -0.34552637
2
Properties=species:S:1:pos:R:3:forces:R:3 energy=-0.14792897433671667 pbc="F F F"
Be       0.00000000       0.00000000       0.00000000       0.00000000       0.00000000       0.31811017
Be       0.00000000       0.00000000       3.70727273       0.00000000       0.00000000      -0.31811017
2
Properties=species:S:1:pos:R:3:forces:R:3 energy=-0.13002805243006166 pbc="F F F"
Be       0.00000000       0.00000000       0.00000000       0.00000000       0.00000000       0.29089817
Be       0.00000000       0.00000000       3.76606061       0.00000000       0.00000000      -0.29089817
2
Properties=species:S:1:pos:R:3:forces:R:3 energy=-0.11372567148495753 pbc="F F F"
Be       0.00000000       0.00000000       0.00000000       0.00000000       0.00000000       0.26371941
Be       0.00000000       0.00000000       3.82484848       0.00000000       0.00000000      -0.26371941
2
Properties=species:S:1:pos:R:3:forces:R:3 energy=-0.09902181427505531 pbc="F F F"
Be       0.00000000       0.00000000       0.00000000       0.00000000       0.00000000       0.23650599
Be       0.00000000       0.00000000       3.88363636       0.00000000       0.00000000      -0.23650599
2
Properties=species:S:1:pos:R:3:forces:R:3 energy=-0.08591842346655545 pbc="F F F"
Be       0.00000000       0.00000000       0.00000000       0.00000000       0.00000000       0.20928875
Be       0.00000000       0.00000000       3.94242424       0.00000000       0.00000000      -0.20928875
2
Properties=species:S:1:pos:R:3:forces:R:3 energy=-0.07441268481376812 pbc="F F F"
Be       0.00000000       0.00000000       0.00000000       0.00000000       0.00000000       0.18217766
Be       0.00000000       0.00000000       4.00121212       0.00000000       0.00000000      -0.18217766
2
Properties=species:S:1:pos:R:3:forces:R:3 energy=-0.0644931413008505 pbc="F F F"
Be       0.00000000       0.00000000       0.00000000       0.00000000       0.00000000       0.15535989
Be       0.00000000       0.00000000       4.06000000       0.00000000       0.00000000      -0.15535989
2
Properties=species:S:1:pos:R:3:forces:R:3 energy=-0.056135161613862554 pbc="F F F"
Be       0.00000000       0.00000000       0.00000000       0.00000000       0.00000000       0.12910774
Be       0.00000000       0.00000000       4.11878788       0.00000000       0.00000000      -0.12910774
2
Properties=species:S:1:pos:R:3:forces:R:3 energy=-0.04929483535442522 pbc="F F F"
Be       0.00000000       0.00000000       0.00000000       0.00000000       0.00000000       0.10379508
Be       0.00000000       0.00000000       4.17757576       0.00000000       0.00000000      -0.10379508
2
Properties=species:S:1:pos:R:3:forces:R:3 energy=-0.04390339747031938 pbc="F F F"
Be       0.00000000       0.00000000       0.00000000       0.00000000       0.00000000       0.07990668
Be       0.00000000       0.00000000       4.23636364       0.00000000       0.00000000      -0.07990668
2
Properties=species:S:1:pos:R:3:forces:R:3 energy=-0.039860687888913254 pbc="F F F"
Be       0.00000000       0.00000000       0.00000000       0.00000000       0.00000000       0.05800765
Be       0.00000000       0.00000000       4.29515152       0.00000000       0.00000000      -0.05800765
2
Properties=species:S:1:pos:R:3:forces:R:3 energy=-0.03703287299769254 pbc="F F F"
Be       0.00000000       0.00000000       0.00000000       0.00000000       0.00000000       0.03866911
Be       0.00000000       0.00000000       4.35393939       0.00000000       0.00000000      -0.03866911
2
Properties=species:S:1:pos:R:3:forces:R:3 energy=-0.035254822569711505 pbc="F F F"
Be       0.00000000       0.00000000       0.00000000       0.00000000       0.00000000       0.02235276
Be       0.00000000       0.00000000       4.41272727       0.00000000       0.00000000      -0.02235276
2
Properties=species:S:1:pos:R:3:forces:R:3 energy=-0.03434041503577903 pbc="F F F"
Be       0.00000000       0.00000000       0.00000000       0.00000000       0.00000000       0.00930817
Be       0.00000000       0.00000000       4.47151515       0.00000000       0.00000000      -0.00930817
2
Properties=species:S:1:pos:R:3:forces:R:3 energy=-0.03409659609733748 pbc="F F F"
Be       0.00000000       0.00000000       0.00000000       0.00000000       0.00000000      -0.00048791
Be       0.00000000       0.00000000       4.53030303       0.00000000       0.00000000       0.00048791
2
Properties=species:S:1:pos:R:3:forces:R:3 energy=-0.03433937910480495 pbc="F F F"
Be       0.00000000       0.00000000       0.00000000       0.00000000       0.00000000      -0.00730965
Be       0.00000000       0.00000000       4.58909091       0.00000000       0.00000000       0.00730965
2
Properties=species:S:1:pos:R:3:forces:R:3 energy=-0.034906437149268034 pbc="F F F"
Be       0.00000000       0.00000000       0.00000000       0.00000000       0.00000000      -0.01160209
Be       0.00000000       0.00000000       4.64787879       0.00000000       0.00000000       0.01160209
2
Properties=species:S:1:pos:R:3:forces:R:3 energy=-0.03566400176915427 pbc="F F F"
Be       0.00000000       0.00000000       0.00000000       0.00000000       0.00000000      -0.01387644
Be       0.00000000       0.00000000       4.70666667       0.00000000       0.00000000       0.01387644
2
Properties=species:S:1:pos:R:3:forces:R:3 energy=-0.03650818688822821 pbc="F F F"
Be       0.00000000       0.00000000       0.00000000       0.00000000       0.00000000      -0.01462913
Be       0.00000000       0.00000000       4.76545455       0.00000000       0.00000000       0.01462913
2
Properties=species:S:1:pos:R:3:forces:R:3 energy=-0.037362899321469314 pbc="F F F"
Be       0.00000000       0.00000000       0.00000000       0.00000000       0.00000000      -0.01429812
Be       0.00000000       0.00000000       4.82424242       0.00000000       0.00000000       0.01429812
2
Properties=species:S:1:pos:R:3:forces:R:3 energy=-0.038175161726118 pbc="F F F"
Be       0.00000000       0.00000000       0.00000000       0.00000000       0.00000000      -0.01324701
Be       0.00000000       0.00000000       4.88303030       0.00000000       0.00000000       0.01324701
2
Properties=species:S:1:pos:R:3:forces:R:3 energy=-0.038911950108946325 pbc="F F F"
Be       0.00000000       0.00000000       0.00000000       0.00000000       0.00000000      -0.01176501
Be       0.00000000       0.00000000       4.94181818       0.00000000       0.00000000       0.01176501
2
Properties=species:S:1:pos:R:3:forces:R:3 energy=-0.03955440326947831 pbc="F F F"
Be       0.00000000       0.00000000       0.00000000       0.00000000       0.00000000      -0.01007204
Be       0.00000000       0.00000000       5.00060606       0.00000000       0.00000000       0.01007204
2
Properties=species:S:1:pos:R:3:forces:R:3 energy=-0.04009515692556844 pbc="F F F"
Be       0.00000000       0.00000000       0.00000000       0.00000000       0.00000000      -0.00832117
Be       0.00000000       0.00000000       5.05939394       0.00000000       0.00000000       0.00832117
2
Properties=species:S:1:pos:R:3:forces:R:3 energy=-0.040533579611324144 pbc="F F F"
Be       0.00000000       0.00000000       0.00000000       0.00000000       0.00000000      -0.00660886
Be       0.00000000       0.00000000       5.11818182       0.00000000       0.00000000       0.00660886
2
Properties=species:S:1:pos:R:3:forces:R:3 energy=-0.040873924959625635 pbc="F F F"
Be       0.00000000       0.00000000       0.00000000       0.00000000       0.00000000      -0.00498716
Be       0.00000000       0.00000000       5.17696970       0.00000000       0.00000000       0.00498716
2
Properties=species:S:1:pos:R:3:forces:R:3 energy=-0.041122209130154214 pbc="F F F"
Be       0.00000000       0.00000000       0.00000000       0.00000000       0.00000000      -0.00348070
Be       0.00000000       0.00000000       5.23575758       0.00000000       0.00000000       0.00348070
2
Properties=species:S:1:pos:R:3:forces:R:3 energy=-0.041285606697395144 pbc="F F F"
Be       0.00000000       0.00000000       0.00000000       0.00000000       0.00000000      -0.00209997
Be       0.00000000       0.00000000       5.29454545       0.00000000       0.00000000       0.00209997
2
Properties=species:S:1:pos:R:3:forces:R:3 energy=-0.04137173253232014 pbc="F F F"
Be       0.00000000       0.00000000       0.00000000       0.00000000       0.00000000      -0.00085237
Be       0.00000000       0.00000000       5.35333333       0.00000000       0.00000000       0.00085237
2
Properties=species:S:1:pos:R:3:forces:R:3 energy=-0.04138855103274257 pbc="F F F"
Be       0.00000000       0.00000000       0.00000000       0.00000000       0.00000000       0.00025490
Be       0.00000000       0.00000000       5.41212121       0.00000000       0.00000000      -0.00025490
2
Properties=species:S:1:pos:R:3:forces:R:3 energy=-0.04134462991203255 pbc="F F F"
Be       0.00000000       0.00000000       0.00000000       0.00000000       0.00000000       0.00121593
Be       0.00000000       0.00000000       5.47090909       0.00000000       0.00000000      -0.00121593
2
Properties=species:S:1:pos:R:3:forces:R:3 energy=-0.04124857093316343 pbc="F F F"
Be       0.00000000       0.00000000       0.00000000       0.00000000       0.00000000       0.00202826
Be       0.00000000       0.00000000       5.52969697       0.00000000       0.00000000      -0.00202826
2
Properties=species:S:1:pos:R:3:forces:R:3 energy=-0.041108978522478315 pbc="F F F"
Be       0.00000000       0.00000000       0.00000000       0.00000000       0.00000000       0.00269688
Be       0.00000000       0.00000000       5.58848485       0.00000000       0.00000000      -0.00269688
2
Properties=species:S:1:pos:R:3:forces:R:3 energy=-0.04093400378885599 pbc="F F F"
Be       0.00000000       0.00000000       0.00000000       0.00000000       0.00000000       0.00323036
Be       0.00000000       0.00000000       5.64727273       0.00000000       0.00000000      -0.00323036
2
Properties=species:S:1:pos:R:3:forces:R:3 energy=-0.04073149036750066 pbc="F F F"
Be       0.00000000       0.00000000       0.00000000       0.00000000       0.00000000       0.00364134
Be       0.00000000       0.00000000       5.70606061       0.00000000       0.00000000      -0.00364134
2
Properties=species:S:1:pos:R:3:forces:R:3 energy=-0.04050832866829368 pbc="F F F"
Be       0.00000000       0.00000000       0.00000000       0.00000000       0.00000000       0.00393842
Be       0.00000000       0.00000000       5.76484848       0.00000000       0.00000000      -0.00393842
2
Properties=species:S:1:pos:R:3:forces:R:3 energy=-0.040270724904146946 pbc="F F F"
Be       0.00000000       0.00000000       0.00000000       0.00000000       0.00000000       0.00412535
Be       0.00000000       0.00000000       5.82363636       0.00000000       0.00000000      -0.00412535
2
Properties=species:S:1:pos:R:3:forces:R:3 energy=-0.040025339768903885 pbc="F F F"
Be       0.00000000       0.00000000       0.00000000       0.00000000       0.00000000       0.00419904
Be       0.00000000       0.00000000       5.88242424       0.00000000       0.00000000      -0.00419904
2
Properties=species:S:1:pos:R:3:forces:R:3 energy=-0.039779392422487084 pbc="F F F"
Be       0.00000000       0.00000000       0.00000000       0.00000000       0.00000000       0.00414873
Be       0.00000000       0.00000000       5.94121212       0.00000000       0.00000000      -0.00414873
2
Properties=species:S:1:pos:R:3:forces:R:3 energy=-0.039540342903273344 pbc="F F F"
Be       0.00000000       0.00000000       0.00000000       0.00000000       0.00000000       0.00395837
Be       0.00000000       0.00000000       6.00000000       0.00000000       0.00000000      -0.00395837
