2
Properties=species:S:1:pos:R:3:forces:R:3 energy=657.3969148339681 pbc="F F F"
Be       0.00000000       0.00000000       0.00000000       0.00000000       0.00000000  -11962.08105469
Be       0.00000000       0.00000000       0.10000000       0.00000000       0.00000000   11962.08105469
2
Properties=species:S:1:pos:R:3:forces:R:3 energy=261.5271943749837 pbc="F F F"
Be       0.00000000       0.00000000       0.00000000       0.00000000       0.00000000   -3502.62792969
Be       0.00000000       0.00000000       0.15959596       0.00000000       0.00000000    3502.62792969
2
Properties=species:S:1:pos:R:3:forces:R:3 energy=127.67658554930013 pbc="F F F"
Be       0.00000000       0.00000000       0.00000000       0.00000000       0.00000000   -1387.63183594
Be       0.00000000       0.00000000       0.21919192       0.00000000       0.00000000    1387.63183594
2
Properties=species:S:1:pos:R:3:forces:R:3 energy=70.51379715818685 pbc="F F F"
Be       0.00000000       0.00000000       0.00000000       0.00000000       0.00000000    -644.38385010
Be       0.00000000       0.00000000       0.27878788       0.00000000       0.00000000     644.38385010
2
Properties=species:S:1:pos:R:3:forces:R:3 energy=42.68215882834086 pbc="F F F"
Be       0.00000000       0.00000000       0.00000000       0.00000000       0.00000000    -330.40393066
Be       0.00000000       0.00000000       0.33838384       0.00000000       0.00000000     330.40393066
2
Properties=species:S:1:pos:R:3:forces:R:3 energy=27.9763940800078 pbc="F F F"
Be       0.00000000       0.00000000       0.00000000       0.00000000       0.00000000    -180.09858704
Be       0.00000000       0.00000000       0.39797980       0.00000000       0.00000000     180.09858704
2
Properties=species:S:1:pos:R:3:forces:R:3 energy=19.817859114359557 pbc="F F F"
Be       0.00000000       0.00000000       0.00000000       0.00000000       0.00000000    -101.80233765
Be       0.00000000       0.00000000       0.45757576       0.00000000       0.00000000     101.80233765
2
Properties=species:S:1:pos:R:3:forces:R:3 energy=15.128161921594465 pbc="F F F"
Be       0.00000000       0.00000000       0.00000000       0.00000000       0.00000000     -60.05501175
Be       0.00000000       0.00000000       0.51717172       0.00000000       0.00000000      60.05501175
2
Properties=species:S:1:pos:R:3:forces:R:3 energy=12.241026545798904 pbc="F F F"
Be       0.00000000       0.00000000       0.00000000       0.00000000       0.00000000     -39.61272430
Be       0.00000000       0.00000000       0.57676768       0.00000000       0.00000000      39.61272430
2
Properties=species:S:1:pos:R:3:forces:R:3 energy=10.143296134117596 pbc="F F F"
Be       0.00000000       0.00000000       0.00000000       0.00000000       0.00000000     -32.43837357
Be       0.00000000       0.00000000       0.63636364       0.00000000       0.00000000      32.43837357
2
Properties=species:S:1:pos:R:3:forces:R:3 energy=8.246642353549712 pbc="F F F"
Be       0.00000000       0.00000000       0.00000000       0.00000000       0.00000000     -31.71688461
Be       0.00000000       0.00000000       0.69595960       0.00000000       0.00000000      31.71688461
2
Properties=species:S:1:pos:R:3:forces:R:3 energy=6.362789462898764 pbc="F F F"
Be       0.00000000       0.00000000       0.00000000       0.00000000       0.00000000     -31.09184837
Be       0.00000000       0.00000000       0.75555556       0.00000000       0.00000000      31.09184837
2
Properties=species:S:1:pos:R:3:forces:R:3 energy=4.612289114840141 pbc="F F F"
Be       0.00000000       0.00000000       0.00000000       0.00000000       0.00000000     -27.02249336
Be       0.00000000       0.00000000       0.81515152       0.00000000       0.00000000      27.02249336
2
Properties=species:S:1:pos:R:3:forces:R:3 energy=3.2049900562612152 pbc="F F F"
Be       0.00000000       0.00000000       0.00000000       0.00000000       0.00000000     -19.80271149
Be       0.00000000       0.00000000       0.87474747       0.00000000       0.00000000      19.80271149
2
Properties=species:S:1:pos:R:3:forces:R:3 energy=2.280469077879098 pbc="F F F"
Be       0.00000000       0.00000000       0.00000000       0.00000000       0.00000000     -11.22961521
Be       0.00000000       0.00000000       0.93434343       0.00000000       0.00000000      11.22961521
2
Properties=species:S:1:pos:R:3:forces:R:3 energy=1.8195456699341763 pbc="F F F"
Be       0.00000000       0.00000000       0.00000000       0.00000000       0.00000000      -4.94102383
Be       0.00000000       0.00000000       0.99393939       0.00000000       0.00000000       4.94102383
2
Properties=species:S:1:pos:R:3:forces:R:3 energy=1.6159161907484405 pbc="F F F"
Be       0.00000000       0.00000000       0.00000000       0.00000000       0.00000000      -2.35514736
Be       0.00000000       0.00000000       1.05353535       0.00000000       0.00000000       2.35514736
2
Properties=species:S:1:pos:R:3:forces:R:3 energy=1.49600450392115 pbc="F F F"
Be       0.00000000       0.00000000       0.00000000       0.00000000       0.00000000      -1.94504654
Be       0.00000000       0.00000000       1.11313131       0.00000000       0.00000000       1.94504654
2
Properties=species:S:1:pos:R:3:forces:R:3 energy=1.3611607872058464 pbc="F F F"
Be       0.00000000       0.00000000       0.00000000       0.00000000       0.00000000      -2.70516682
Be       0.00000000       0.00000000       1.17272727       0.00000000       0.00000000       2.70516682
2
Properties=species:S:1:pos:R:3:forces:R:3 energy=1.1638338446665444 pbc="F F F"
Be       0.00000000       0.00000000       0.00000000       0.00000000       0.00000000      -3.95559835
Be       0.00000000       0.00000000       1.23232323       0.00000000       0.00000000       3.95559835
2
Properties=species:S:1:pos:R:3:forces:R:3 energy=0.8919977934082165 pbc="F F F"
Be       0.00000000       0.00000000       0.00000000       0.00000000       0.00000000      -5.08378601
Be       0.00000000       0.00000000       1.29191919       0.00000000       0.00000000       5.08378601
2
Properties=species:S:1:pos:R:3:forces:R:3 energy=0.5734669255914848 pbc="F F F"
Be       0.00000000       0.00000000       0.00000000       0.00000000       0.00000000      -5.45355892
Be       0.00000000       0.00000000       1.35151515       0.00000000       0.00000000       5.45355892
2
Properties=species:S:1:pos:R:3:forces:R:3 energy=0.25785414781602556 pbc="F F F"
Be       0.00000000       0.00000000       0.00000000       0.00000000       0.00000000      -5.04177618
Be       0.00000000       0.00000000       1.41111111       0.00000000       0.00000000       5.04177618
2
Properties=species:S:1:pos:R:3:forces:R:3 energy=-0.020952617853715376 pbc="F F F"
Be       0.00000000       0.00000000       0.00000000       0.00000000       0.00000000      -4.29412699
Be       0.00000000       0.00000000       1.47070707       0.00000000       0.00000000       4.29412699
2
Properties=species:S:1:pos:R:3:forces:R:3 energy=-0.2536288620861664 pbc="F F F"
Be       0.00000000       0.00000000       0.00000000       0.00000000       0.00000000      -3.52030182
Be       0.00000000       0.00000000       1.53030303       0.00000000       0.00000000       3.52030182
2
Properties=species:S:1:pos:R:3:forces:R:3 energy=-0.441480961056091 pbc="F F F"
Be       0.00000000       0.00000000       0.00000000       0.00000000       0.00000000      -2.79293585
Be       0.00000000       0.00000000       1.58989899       0.00000000       0.00000000       2.79293585
2
Properties=species:S:1:pos:R:3:forces:R:3 energy=-0.5878972128861245 pbc="F F F"
Be       0.00000000       0.00000000       0.00000000       0.00000000       0.00000000      -2.13531303
Be       0.00000000       0.00000000       1.64949495       0.00000000       0.00000000       2.13531303
2
Properties=species:S:1:pos:R:3:forces:R:3 energy=-0.6980478782894148 pbc="F F F"
Be       0.00000000       0.00000000       0.00000000       0.00000000       0.00000000      -1.57999027
Be       0.00000000       0.00000000       1.70909091       0.00000000       0.00000000       1.57999027
2
Properties=species:S:1:pos:R:3:forces:R:3 energy=-0.7784332288371264 pbc="F F F"
Be       0.00000000       0.00000000       0.00000000       0.00000000       0.00000000      -1.13547409
Be       0.00000000       0.00000000       1.76868687       0.00000000       0.00000000       1.13547409
2
Properties=species:S:1:pos:R:3:forces:R:3 energy=-0.835369727639433 pbc="F F F"
Be       0.00000000       0.00000000       0.00000000       0.00000000       0.00000000      -0.79073709
Be       0.00000000       0.00000000       1.82828283       0.00000000       0.00000000       0.79073709
2
Properties=species:S:1:pos:R:3:forces:R:3 energy=-0.8743772562554292 pbc="F F F"
Be       0.00000000       0.00000000       0.00000000       0.00000000       0.00000000      -0.53127199
Be       0.00000000       0.00000000       1.88787879       0.00000000       0.00000000       0.53127199
2
Properties=species:S:1:pos:R:3:forces:R:3 energy=-0.9000635549663017 pbc="F F F"
Be       0.00000000       0.00000000       0.00000000       0.00000000       0.00000000      -0.34060863
Be       0.00000000       0.00000000       1.94747475       0.00000000       0.00000000       0.34060863
2
Properties=species:S:1:pos:R:3:forces:R:3 energy=-0.9159623545752844 pbc="F F F"
Be       0.00000000       0.00000000       0.00000000       0.00000000       0.00000000      -0.19982944
Be       0.00000000       0.00000000       2.00707071       0.00000000       0.00000000       0.19982944
2
Properties=species:S:1:pos:R:3:forces:R:3 energy=-0.9245503662435075 pbc="F F F"
Be       0.00000000       0.00000000       0.00000000       0.00000000       0.00000000      -0.09276985
Be       0.00000000       0.00000000       2.06666667       0.00000000       0.00000000       0.09276985
2
Properties=species:S:1:pos:R:3:forces:R:3 energy=-0.9274085032390512 pbc="F F F"
Be       0.00000000       0.00000000       0.00000000       0.00000000       0.00000000      -0.00532413
Be       0.00000000       0.00000000       2.12626263       0.00000000       0.00000000       0.00532413
2
Properties=species:S:1:pos:R:3:forces:R:3 energy=-0.9253289980525407 pbc="F F F"
Be       0.00000000       0.00000000       0.00000000       0.00000000       0.00000000       0.07477266
Be       0.00000000       0.00000000       2.18585859       0.00000000       0.00000000      -0.07477266
2
Properties=species:S:1:pos:R:3:forces:R:3 energy=-0.9184593522341568 pbc="F F F"
Be       0.00000000       0.00000000       0.00000000       0.00000000       0.00000000       0.15650728
Be       0.00000000       0.00000000       2.24545455       0.00000000       0.00000000      -0.15650728
2
Properties=species:S:1:pos:R:3:forces:R:3 energy=-0.9065821344295979 pbc="F F F"
Be       0.00000000       0.00000000       0.00000000       0.00000000       0.00000000       0.24257770
Be       0.00000000       0.00000000       2.30505051       0.00000000       0.00000000      -0.24257770
2
Properties=species:S:1:pos:R:3:forces:R:3 energy=-0.8895727035988915 pbc="F F F"
Be       0.00000000       0.00000000       0.00000000       0.00000000       0.00000000       0.32712775
Be       0.00000000       0.00000000       2.36464646       0.00000000       0.00000000      -0.32712775
2
Properties=species:S:1:pos:R:3:forces:R:3 energy=-0.8678242156623173 pbc="F F F"
Be       0.00000000       0.00000000       0.00000000       0.00000000       0.00000000       0.40041566
Be       0.00000000       0.00000000       2.42424242       0.00000000       0.00000000      -0.40041566
2
Properties=species:S:1:pos:R:3:forces:R:3 energy=-0.8420212424735358 pbc="F F F"
Be       0.00000000       0.00000000       0.00000000       0.00000000       0.00000000       0.46564066
Be       0.00000000       0.00000000       2.48383838       0.00000000       0.00000000      -0.46564066
2
Properties=species:S:1:pos:R:3:forces:R:3 energy=-0.8121282479780425 pbc="F F F"
Be       0.00000000       0.00000000       0.00000000       0.00000000       0.00000000       0.53959382
Be       0.00000000       0.00000000       2.54343434       0.00000000       0.00000000      -0.53959382
2
Properties=species:S:1:pos:R:3:forces:R:3 energy=-0.7776479404891742 pbc="F F F"
Be       0.00000000       0.00000000       0.00000000       0.00000000       0.00000000       0.61582500
Be       0.00000000       0.00000000       2.60303030       0.00000000       0.00000000      -0.61582500
2
Properties=species:S:1:pos:R:3:forces:R:3 energy=-0.7391408170748561 pbc="F F F"
Be       0.00000000       0.00000000       0.00000000       0.00000000       0.00000000       0.67203391
Be       0.00000000       0.00000000       2.66262626       0.00000000       0.00000000      -0.67203391
2
Properties=species:S:1:pos:R:3:forces:R:3 energy=-0.6980560926937172 pbc="F F F"
Be       0.00000000       0.00000000       0.00000000       0.00000000       0.00000000       0.70299280
Be       0.00000000       0.00000000       2.72222222       0.00000000       0.00000000      -0.70299280
2
Properties=species:S:1:pos:R:3:forces:R:3 energy=-0.6557132522264456 pbc="F F F"
Be       0.00000000       0.00000000       0.00000000       0.00000000       0.00000000       0.71561944
Be       0.00000000       0.00000000       2.78181818       0.00000000       0.00000000      -0.71561944
2
Properties=species:S:1:pos:R:3:forces:R:3 energy=-0.6129881660441251 pbc="F F F"
Be       0.00000000       0.00000000       0.00000000       0.00000000       0.00000000       0.71664417
Be       0.00000000       0.00000000       2.84141414       0.00000000       0.00000000      -0.71664417
2
Properties=species:S:1:pos:R:3:forces:R:3 energy=-0.5704561115327682 pbc="F F F"
Be       0.00000000       0.00000000       0.00000000       0.00000000       0.00000000       0.70949119
Be       0.00000000       0.00000000       2.90101010       0.00000000       0.00000000      -0.70949119
2
Properties=species:S:1:pos:R:3:forces:R:3 energy=-0.5285593360072922 pbc="F F F"
Be       0.00000000       0.00000000       0.00000000       0.00000000       0.00000000       0.69542193
Be       0.00000000       0.00000000       2.96060606       0.00000000       0.00000000      -0.69542193
2
Properties=species:S:1:pos:R:3:forces:R:3 energy=-0.4876925693133003 pbc="F F F"
Be       0.00000000       0.00000000       0.00000000       0.00000000       0.00000000       0.67505008
Be       0.00000000       0.00000000       3.02020202       0.00000000       0.00000000      -0.67505008
2
Properties=species:S:1:pos:R:3:forces:R:3 energy=-0.4482087467769381 pbc="F F F"
Be       0.00000000       0.00000000       0.00000000       0.00000000       0.00000000       0.64917183
Be       0.00000000       0.00000000       3.07979798       0.00000000       0.00000000      -0.64917183
2
Properties=species:S:1:pos:R:3:forces:R:3 energy=-0.4104021726187088 pbc="F F F"
Be       0.00000000       0.00000000       0.00000000       0.00000000       0.00000000       0.61897123
Be       0.00000000       0.00000000       3.13939394       0.00000000       0.00000000      -0.61897123
2
Properties=species:S:1:pos:R:3:forces:R:3 energy=-0.37448981598338626 pbc="F F F"
Be       0.00000000       0.00000000       0.00000000       0.00000000       0.00000000       0.58588862
Be       0.00000000       0.00000000       3.19898990       0.00000000       0.00000000      -0.58588862
2
Properties=species:S:1:pos:R:3:forces:R:3 energy=-0.3405973787768202 pbc="F F F"
Be       0.00000000       0.00000000       0.00000000       0.00000000       0.00000000       0.55138201
Be       0.00000000       0.00000000       3.25858586       0.00000000       0.00000000      -0.55138201
2
Properties=species:S:1:pos:R:3:forces:R:3 energy=-0.3087722009197826 pbc="F F F"
Be       0.00000000       0.00000000       0.00000000       0.00000000       0.00000000       0.51672387
Be       0.00000000       0.00000000       3.31818182       0.00000000       0.00000000      -0.51672387
2
Properties=species:S:1:pos:R:3:forces:R:3 energy=-0.27899274237035787 pbc="F F F"
Be       0.00000000       0.00000000       0.00000000       0.00000000       0.00000000       0.48284778
Be       0.00000000       0.00000000       3.37777778       0.00000000       0.00000000      -0.48284778
2
Properties=species:S:1:pos:R:3:forces:R:3 energy=-0.2511942823174 pbc="F F F"
Be       0.00000000       0.00000000       0.00000000       0.00000000       0.00000000       0.45029050
Be       0.00000000       0.00000000       3.43737374       0.00000000       0.00000000      -0.45029050
2
Properties=species:S:1:pos:R:3:forces:R:3 energy=-0.2252919344309855 pbc="F F F"
Be       0.00000000       0.00000000       0.00000000       0.00000000       0.00000000       0.41921031
Be       0.00000000       0.00000000       3.49696970       0.00000000       0.00000000      -0.41921031
2
Properties=species:S:1:pos:R:3:forces:R:3 energy=-0.20120077128759514 pbc="F F F"
Be       0.00000000       0.00000000       0.00000000       0.00000000       0.00000000       0.38947627
Be       0.00000000       0.00000000       3.55656566       0.00000000       0.00000000      -0.38947627
2
Properties=species:S:1:pos:R:3:forces:R:3 energy=-0.17884884610909813 pbc="F F F"
Be       0.00000000       0.00000000       0.00000000       0.00000000       0.00000000       0.36078313
Be       0.00000000       0.00000000       3.61616162       0.00000000       0.00000000      -0.36078313
2
Properties=species:S:1:pos:R:3:forces:R:3 energy=-0.15818495405580102 pbc="F F F"
Be       0.00000000       0.00000000       0.00000000       0.00000000       0.00000000       0.33276674
Be       0.00000000       0.00000000       3.67575758       0.00000000       0.00000000      -0.33276674
2
Properties=species:S:1:pos:R:3:forces:R:3 energy=-0.13917897284725356 pbc="F F F"
Be       0.00000000       0.00000000       0.00000000       0.00000000       0.00000000       0.30509961
Be       0.00000000       0.00000000       3.73535354       0.00000000       0.00000000      -0.30509961
2
Properties=species:S:1:pos:R:3:forces:R:3 energy=-0.12181737142502702 pbc="F F F"
Be       0.00000000       0.00000000       0.00000000       0.00000000       0.00000000       0.27754495
Be       0.00000000       0.00000000       3.79494949       0.00000000       0.00000000      -0.27754495
2
Properties=species:S:1:pos:R:3:forces:R:3 energy=-0.10609814175296436 pbc="F F F"
Be       0.00000000       0.00000000       0.00000000       0.00000000       0.00000000       0.24997744
Be       0.00000000       0.00000000       3.85454545       0.00000000       0.00000000      -0.24997744
2
Properties=species:S:1:pos:R:3:forces:R:3 energy=-0.09202277854161756 pbc="F F F"
Be       0.00000000       0.00000000       0.00000000       0.00000000       0.00000000       0.22237803
Be       0.00000000       0.00000000       3.91414141       0.00000000       0.00000000      -0.22237803
2
Properties=species:S:1:pos:R:3:forces:R:3 energy=-0.07959142582341201 pbc="F F F"
Be       0.00000000       0.00000000       0.00000000       0.00000000       0.00000000       0.19482429
Be       0.00000000       0.00000000       3.97373737       0.00000000       0.00000000      -0.19482429
2
Properties=species:S:1:pos:R:3:forces:R:3 energy=-0.06879736293902888 pbc="F F F"
Be       0.00000000       0.00000000       0.00000000       0.00000000       0.00000000       0.16747306
Be       0.00000000       0.00000000       4.03333333       0.00000000       0.00000000      -0.16747306
2
Properties=species:S:1:pos:R:3:forces:R:3 energy=-0.059621409983294654 pbc="F F F"
Be       0.00000000       0.00000000       0.00000000       0.00000000       0.00000000       0.14056379
Be       0.00000000       0.00000000       4.09292929       0.00000000       0.00000000      -0.14056379
2
Properties=species:S:1:pos:R:3:forces:R:3 energy=-0.05202777096518426 pbc="F F F"
Be       0.00000000       0.00000000       0.00000000       0.00000000       0.00000000       0.11443751
Be       0.00000000       0.00000000       4.15252525       0.00000000       0.00000000      -0.11443751
2
Properties=species:S:1:pos:R:3:forces:R:3 energy=-0.04595688923198876 pbc="F F F"
Be       0.00000000       0.00000000       0.00000000       0.00000000       0.00000000       0.08955037
Be       0.00000000       0.00000000       4.21212121       0.00000000       0.00000000      -0.08955037
2
Properties=species:S:1:pos:R:3:forces:R:3 energy=-0.04131842289024347 pbc="F F F"
Be       0.00000000       0.00000000       0.00000000       0.00000000       0.00000000       0.06646144
Be       0.00000000       0.00000000       4.27171717       0.00000000       0.00000000      -0.06646144
2
Properties=species:S:1:pos:R:3:forces:R:3 energy=-0.03798742876780767 pbc="F F F"
Be       0.00000000       0.00000000       0.00000000       0.00000000       0.00000000       0.04577601
Be       0.00000000       0.00000000       4.33131313       0.00000000       0.00000000      -0.04577601
2
Properties=species:S:1:pos:R:3:forces:R:3 energy=-0.03580374609506883 pbc="F F F"
Be       0.00000000       0.00000000       0.00000000       0.00000000       0.00000000       0.02803396
Be       0.00000000       0.00000000       4.39090909       0.00000000       0.00000000      -0.02803396
2
Properties=species:S:1:pos:R:3:forces:R:3 energy=-0.034580239041477806 pbc="F F F"
Be       0.00000000       0.00000000       0.00000000       0.00000000       0.00000000       0.01358994
Be       0.00000000       0.00000000       4.45050505       0.00000000       0.00000000      -0.01358994
2
Properties=species:S:1:pos:R:3:forces:R:3 energy=-0.034116574210519224 pbc="F F F"
Be       0.00000000       0.00000000       0.00000000       0.00000000       0.00000000       0.00252506
Be       0.00000000       0.00000000       4.51010101       0.00000000       0.00000000      -0.00252506
2
Properties=species:S:1:pos:R:3:forces:R:3 energy=-0.034216057673191455 pbc="F F F"
Be       0.00000000       0.00000000       0.00000000       0.00000000       0.00000000      -0.00536296
Be       0.00000000       0.00000000       4.56969697       0.00000000       0.00000000       0.00536296
2
Properties=species:S:1:pos:R:3:forces:R:3 energy=-0.034700842633732076 pbc="F F F"
Be       0.00000000       0.00000000       0.00000000       0.00000000       0.00000000      -0.01048787
Be       0.00000000       0.00000000       4.62929293       0.00000000       0.00000000       0.01048787
2
Properties=species:S:1:pos:R:3:forces:R:3 energy=-0.035421552894155627 pbc="F F F"
Be       0.00000000       0.00000000       0.00000000       0.00000000       0.00000000      -0.01337095
Be       0.00000000       0.00000000       4.68888889       0.00000000       0.00000000       0.01337095
2
Properties=species:S:1:pos:R:3:forces:R:3 energy=-0.036260583527727805 pbc="F F F"
Be       0.00000000       0.00000000       0.00000000       0.00000000       0.00000000      -0.01454117
Be       0.00000000       0.00000000       4.74848485       0.00000000       0.00000000       0.01454117
2
Properties=species:S:1:pos:R:3:forces:R:3 energy=-0.03713023657466571 pbc="F F F"
Be       0.00000000       0.00000000       0.00000000       0.00000000       0.00000000      -0.01447498
Be       0.00000000       0.00000000       4.80808081       0.00000000       0.00000000       0.01447498
2
Properties=species:S:1:pos:R:3:forces:R:3 energy=-0.03796933357184987 pbc="F F F"
Be       0.00000000       0.00000000       0.00000000       0.00000000       0.00000000      -0.01357348
Be       0.00000000       0.00000000       4.86767677       0.00000000       0.00000000       0.01357348
2
Properties=species:S:1:pos:R:3:forces:R:3 energy=-0.03873796414117979 pbc="F F F"
Be       0.00000000       0.00000000       0.00000000       0.00000000       0.00000000      -0.01215869
Be       0.00000000       0.00000000       4.92727273       0.00000000       0.00000000       0.01215869
2
Properties=species:S:1:pos:R:3:forces:R:3 energy=-0.039413291644447755 pbc="F F F"
Be       0.00000000       0.00000000       0.00000000       0.00000000       0.00000000      -0.01047734
Be       0.00000000       0.00000000       4.98686869       0.00000000       0.00000000       0.01047734
2
Properties=species:S:1:pos:R:3:forces:R:3 energy=-0.03998493550902709 pbc="F F F"
Be       0.00000000       0.00000000       0.00000000       0.00000000       0.00000000      -0.00870565
Be       0.00000000       0.00000000       5.04646465       0.00000000       0.00000000       0.00870565
2
Properties=species:S:1:pos:R:3:forces:R:3 energy=-0.04045133461008598 pbc="F F F"
Be       0.00000000       0.00000000       0.00000000       0.00000000       0.00000000      -0.00695586
Be       0.00000000       0.00000000       5.10606061       0.00000000       0.00000000       0.00695586
2
Properties=species:S:1:pos:R:3:forces:R:3 energy=-0.04081587588427301 pbc="F F F"
Be       0.00000000       0.00000000       0.00000000       0.00000000       0.00000000      -0.00529074
Be       0.00000000       0.00000000       5.16565657       0.00000000       0.00000000       0.00529074
2
Properties=species:S:1:pos:R:3:forces:R:3 energy=-0.04108435652657502 pbc="F F F"
Be       0.00000000       0.00000000       0.00000000       0.00000000       0.00000000      -0.00374093
Be       0.00000000       0.00000000       5.22525253       0.00000000       0.00000000       0.00374093
2
Properties=species:S:1:pos:R:3:forces:R:3 energy=-0.04126422095176744 pbc="F F F"
Be       0.00000000       0.00000000       0.00000000       0.00000000       0.00000000      -0.00231871
Be       0.00000000       0.00000000       5.28484848       0.00000000       0.00000000       0.00231871
2
Properties=species:S:1:pos:R:3:forces:R:3 energy=-0.04136340942748586 pbc="F F F"
Be       0.00000000       0.00000000       0.00000000       0.00000000       0.00000000      -0.00103212
Be       0.00000000       0.00000000       5.34444444       0.00000000       0.00000000       0.00103212
2
Properties=species:S:1:pos:R:3:forces:R:3 energy=-0.041390132725155744 pbc="F F F"
Be       0.00000000       0.00000000       0.00000000       0.00000000       0.00000000       0.00011133
Be       0.00000000       0.00000000       5.40404040       0.00000000       0.00000000      -0.00011133
2
Properties=species:S:1:pos:R:3:forces:R:3 energy=-0.04135321672259896 pbc="F F F"
Be       0.00000000       0.00000000       0.00000000       0.00000000       0.00000000       0.00110501
Be       0.00000000       0.00000000       5.46363636       0.00000000       0.00000000      -0.00110501
2
Properties=species:S:1:pos:R:3:forces:R:3 energy=-0.04126135466262309 pbc="F F F"
Be       0.00000000       0.00000000       0.00000000       0.00000000       0.00000000       0.00194631
Be       0.00000000       0.00000000       5.52323232       0.00000000       0.00000000      -0.00194631
2
Properties=species:S:1:pos:R:3:forces:R:3 energy=-0.04112405582562087 pbc="F F F"
Be       0.00000000       0.00000000       0.00000000       0.00000000       0.00000000       0.00263854
Be       0.00000000       0.00000000       5.58282828       0.00000000       0.00000000      -0.00263854
2
Properties=species:S:1:pos:R:3:forces:R:3 energy=-0.04094964015095267 pbc="F F F"
Be       0.00000000       0.00000000       0.00000000       0.00000000       0.00000000       0.00319128
Be       0.00000000       0.00000000       5.64242424       0.00000000       0.00000000      -0.00319128
2
Properties=species:S:1:pos:R:3:forces:R:3 energy=-0.04074627638951008 pbc="F F F"
Be       0.00000000       0.00000000       0.00000000       0.00000000       0.00000000       0.00361677
Be       0.00000000       0.00000000       5.70202020       0.00000000       0.00000000      -0.00361677
2
Properties=species:S:1:pos:R:3:forces:R:3 energy=-0.040520864928100545 pbc="F F F"
Be       0.00000000       0.00000000       0.00000000       0.00000000       0.00000000       0.00392467
Be       0.00000000       0.00000000       5.76161616       0.00000000       0.00000000      -0.00392467
2
Properties=species:S:1:pos:R:3:forces:R:3 energy=-0.04028064902174809 pbc="F F F"
Be       0.00000000       0.00000000       0.00000000       0.00000000       0.00000000       0.00411975
Be       0.00000000       0.00000000       5.82121212       0.00000000       0.00000000      -0.00411975
2
Properties=species:S:1:pos:R:3:forces:R:3 energy=-0.040032061537611914 pbc="F F F"
Be       0.00000000       0.00000000       0.00000000       0.00000000       0.00000000       0.00419863
Be       0.00000000       0.00000000       5.88080808       0.00000000       0.00000000      -0.00419863
2
Properties=species:S:1:pos:R:3:forces:R:3 energy=-0.03978276508014261 pbc="F F F"
Be       0.00000000       0.00000000       0.00000000       0.00000000       0.00000000       0.00415021
Be       0.00000000       0.00000000       5.94040404       0.00000000       0.00000000      -0.00415021
2
Properties=species:S:1:pos:R:3:forces:R:3 energy=-0.039540343299251116 pbc="F F F"
Be       0.00000000       0.00000000       0.00000000       0.00000000       0.00000000       0.00395838
Be       0.00000000       0.00000000       6.00000000       0.00000000       0.00000000      -0.00395838
