2
Properties=species:S:1:pos:R:3:forces:R:3 energy=407.4945186253158 pbc="F F F"
C        0.00000000       0.00000000       0.00000000       0.00000000       0.00000000   -5001.81103516
C        0.00000000       0.00000000       0.18000000       0.00000000       0.00000000    5001.81103516
2
Properties=species:S:1:pos:R:3:forces:R:3 energy=215.12339435932157 pbc="F F F"
C        0.00000000       0.00000000       0.00000000       0.00000000       0.00000000   -2062.77099609
C        0.00000000       0.00000000       0.23878788       0.00000000       0.00000000    2062.77099609
2
Properties=species:S:1:pos:R:3:forces:R:3 energy=130.50040852264564 pbc="F F F"
C        0.00000000       0.00000000       0.00000000       0.00000000       0.00000000    -978.85192871
C        0.00000000       0.00000000       0.29757576       0.00000000       0.00000000     978.85192871
2
Properties=species:S:1:pos:R:3:forces:R:3 energy=87.92438924345582 pbc="F F F"
C        0.00000000       0.00000000       0.00000000       0.00000000       0.00000000    -535.30090332
C        0.00000000       0.00000000       0.35636364       0.00000000       0.00000000     535.30090332
2
Properties=species:S:1:pos:R:3:forces:R:3 energy=62.24220313575377 pbc="F F F"
C        0.00000000       0.00000000       0.00000000       0.00000000       0.00000000    -367.79965210
C        0.00000000       0.00000000       0.41515152       0.00000000       0.00000000     367.79965210
2
Properties=species:S:1:pos:R:3:forces:R:3 energy=44.08636516107232 pbc="F F F"
C        0.00000000       0.00000000       0.00000000       0.00000000       0.00000000    -218.06047058
C        0.00000000       0.00000000       0.47393939       0.00000000       0.00000000     218.06047058
2
Properties=species:S:1:pos:R:3:forces:R:3 energy=33.554382808889414 pbc="F F F"
C        0.00000000       0.00000000       0.00000000       0.00000000       0.00000000    -133.28041077
C        0.00000000       0.00000000       0.53272727       0.00000000       0.00000000     133.28041077
2
Properties=species:S:1:pos:R:3:forces:R:3 energy=26.088690410708963 pbc="F F F"
C        0.00000000       0.00000000       0.00000000       0.00000000       0.00000000    -124.86335754
C        0.00000000       0.00000000       0.59151515       0.00000000       0.00000000     124.86335754
2
Properties=species:S:1:pos:R:3:forces:R:3 energy=18.789685103442817 pbc="F F F"
C        0.00000000       0.00000000       0.00000000       0.00000000       0.00000000    -121.93630981
C        0.00000000       0.00000000       0.65030303       0.00000000       0.00000000     121.93630981
2
Properties=species:S:1:pos:R:3:forces:R:3 energy=12.107878854310066 pbc="F F F"
C        0.00000000       0.00000000       0.00000000       0.00000000       0.00000000    -103.05721283
C        0.00000000       0.00000000       0.70909091       0.00000000       0.00000000     103.05721283
2
Properties=species:S:1:pos:R:3:forces:R:3 energy=6.545206719183851 pbc="F F F"
C        0.00000000       0.00000000       0.00000000       0.00000000       0.00000000     -90.72925568
C        0.00000000       0.00000000       0.76787879       0.00000000       0.00000000      90.72925568
2
Properties=species:S:1:pos:R:3:forces:R:3 energy=1.2772647601846556 pbc="F F F"
C        0.00000000       0.00000000       0.00000000       0.00000000       0.00000000     -84.22045898
C        0.00000000       0.00000000       0.82666667       0.00000000       0.00000000      84.22045898
2
Properties=species:S:1:pos:R:3:forces:R:3 energy=-2.8597240596206066 pbc="F F F"
C        0.00000000       0.00000000       0.00000000       0.00000000       0.00000000     -55.37296677
C        0.00000000       0.00000000       0.88545455       0.00000000       0.00000000      55.37296677
2
Properties=species:S:1:pos:R:3:forces:R:3 energy=-5.417196299951665 pbc="F F F"
C        0.00000000       0.00000000       0.00000000       0.00000000       0.00000000     -34.31117630
C        0.00000000       0.00000000       0.94424242       0.00000000       0.00000000      34.31117630
2
Properties=species:S:1:pos:R:3:forces:R:3 energy=-7.131124483329838 pbc="F F F"
C        0.00000000       0.00000000       0.00000000       0.00000000       0.00000000     -25.00523376
C        0.00000000       0.00000000       1.00303030       0.00000000       0.00000000      25.00523376
2
Properties=species:S:1:pos:R:3:forces:R:3 energy=-8.394224391806205 pbc="F F F"
C        0.00000000       0.00000000       0.00000000       0.00000000       0.00000000     -17.96062088
C        0.00000000       0.00000000       1.06181818       0.00000000       0.00000000      17.96062088
2
Properties=species:S:1:pos:R:3:forces:R:3 energy=-9.247364610305821 pbc="F F F"
C        0.00000000       0.00000000       0.00000000       0.00000000       0.00000000     -11.22743416
C        0.00000000       0.00000000       1.12060606       0.00000000       0.00000000      11.22743416
2
Properties=species:S:1:pos:R:3:forces:R:3 energy=-9.743966902350643 pbc="F F F"
C        0.00000000       0.00000000       0.00000000       0.00000000       0.00000000      -5.94132185
C        0.00000000       0.00000000       1.17939394       0.00000000       0.00000000       5.94132185
2
Properties=species:S:1:pos:R:3:forces:R:3 energy=-9.972215401298662 pbc="F F F"
C        0.00000000       0.00000000       0.00000000       0.00000000       0.00000000      -1.98303950
C        0.00000000       0.00000000       1.23818182       0.00000000       0.00000000       1.98303950
2
Properties=species:S:1:pos:R:3:forces:R:3 energy=-9.99058727763226 pbc="F F F"
C        0.00000000       0.00000000       0.00000000       0.00000000       0.00000000       1.26141882
C        0.00000000       0.00000000       1.29696970       0.00000000       0.00000000      -1.26141882
2
Properties=species:S:1:pos:R:3:forces:R:3 energy=-9.83681353411116 pbc="F F F"
C        0.00000000       0.00000000       0.00000000       0.00000000       0.00000000       3.83987570
C        0.00000000       0.00000000       1.35575758       0.00000000       0.00000000      -3.83987570
2
Properties=species:S:1:pos:R:3:forces:R:3 energy=-9.555996253751207 pbc="F F F"
C        0.00000000       0.00000000       0.00000000       0.00000000       0.00000000       5.56759262
C        0.00000000       0.00000000       1.41454545       0.00000000       0.00000000      -5.56759262
2
Properties=species:S:1:pos:R:3:forces:R:3 energy=-9.197880383111348 pbc="F F F"
C        0.00000000       0.00000000       0.00000000       0.00000000       0.00000000       6.50183773
C        0.00000000       0.00000000       1.47333333       0.00000000       0.00000000      -6.50183773
2
Properties=species:S:1:pos:R:3:forces:R:3 energy=-8.802162577438281 pbc="F F F"
C        0.00000000       0.00000000       0.00000000       0.00000000       0.00000000       6.89299440
C        0.00000000       0.00000000       1.53212121       0.00000000       0.00000000      -6.89299440
2
Properties=species:S:1:pos:R:3:forces:R:3 energy=-8.393153835561867 pbc="F F F"
C        0.00000000       0.00000000       0.00000000       0.00000000       0.00000000       6.98744631
C        0.00000000       0.00000000       1.59090909       0.00000000       0.00000000      -6.98744631
2
Properties=species:S:1:pos:R:3:forces:R:3 energy=-7.9833368365599515 pbc="F F F"
C        0.00000000       0.00000000       0.00000000       0.00000000       0.00000000       6.94300079
C        0.00000000       0.00000000       1.64969697       0.00000000       0.00000000      -6.94300079
2
Properties=species:S:1:pos:R:3:forces:R:3 energy=-7.57673804819389 pbc="F F F"
C        0.00000000       0.00000000       0.00000000       0.00000000       0.00000000       6.90232038
C        0.00000000       0.00000000       1.70848485       0.00000000       0.00000000      -6.90232038
2
Properties=species:S:1:pos:R:3:forces:R:3 energy=-7.1694133924819665 pbc="F F F"
C        0.00000000       0.00000000       0.00000000       0.00000000       0.00000000       6.97878551
C        0.00000000       0.00000000       1.76727273       0.00000000       0.00000000      -6.97878551
2
Properties=species:S:1:pos:R:3:forces:R:3 energy=-6.753787784094183 pbc="F F F"
C        0.00000000       0.00000000       0.00000000       0.00000000       0.00000000       7.17413473
C        0.00000000       0.00000000       1.82606061       0.00000000       0.00000000      -7.17413473
2
Properties=species:S:1:pos:R:3:forces:R:3 energy=-6.325636428312902 pbc="F F F"
C        0.00000000       0.00000000       0.00000000       0.00000000       0.00000000       7.38273048
C        0.00000000       0.00000000       1.88484848       0.00000000       0.00000000      -7.38273048
2
Properties=species:S:1:pos:R:3:forces:R:3 energy=-5.888068770372234 pbc="F F F"
C        0.00000000       0.00000000       0.00000000       0.00000000       0.00000000       7.47546673
C        0.00000000       0.00000000       1.94363636       0.00000000       0.00000000      -7.47546673
2
Properties=species:S:1:pos:R:3:forces:R:3 energy=-5.450610323237779 pbc="F F F"
C        0.00000000       0.00000000       0.00000000       0.00000000       0.00000000       7.37079382
C        0.00000000       0.00000000       2.00242424       0.00000000       0.00000000      -7.37079382
2
Properties=species:S:1:pos:R:3:forces:R:3 energy=-5.025865005467121 pbc="F F F"
C        0.00000000       0.00000000       0.00000000       0.00000000       0.00000000       7.04116201
C        0.00000000       0.00000000       2.06121212       0.00000000       0.00000000      -7.04116201
2
Properties=species:S:1:pos:R:3:forces:R:3 energy=-4.627145164945183 pbc="F F F"
C        0.00000000       0.00000000       0.00000000       0.00000000       0.00000000       6.48772717
C        0.00000000       0.00000000       2.12000000       0.00000000       0.00000000      -6.48772717
2
Properties=species:S:1:pos:R:3:forces:R:3 energy=-4.266887248412248 pbc="F F F"
C        0.00000000       0.00000000       0.00000000       0.00000000       0.00000000       5.74079895
C        0.00000000       0.00000000       2.17878788       0.00000000       0.00000000      -5.74079895
2
Properties=species:S:1:pos:R:3:forces:R:3 energy=-3.9546460581866985 pbc="F F F"
C        0.00000000       0.00000000       0.00000000       0.00000000       0.00000000       4.86829424
C        0.00000000       0.00000000       2.23757576       0.00000000       0.00000000      -4.86829424
2
Properties=species:S:1:pos:R:3:forces:R:3 energy=-3.6950814765399946 pbc="F F F"
C        0.00000000       0.00000000       0.00000000       0.00000000       0.00000000       3.96556044
C        0.00000000       0.00000000       2.29636364       0.00000000       0.00000000      -3.96556044
2
Properties=species:S:1:pos:R:3:forces:R:3 energy=-3.4871517163745893 pbc="F F F"
C        0.00000000       0.00000000       0.00000000       0.00000000       0.00000000       3.12510014
C        0.00000000       0.00000000       2.35515152       0.00000000       0.00000000      -3.12510014
2
Properties=species:S:1:pos:R:3:forces:R:3 energy=-3.3251934820220956 pbc="F F F"
C        0.00000000       0.00000000       0.00000000       0.00000000       0.00000000       2.40831375
C        0.00000000       0.00000000       2.41393939       0.00000000       0.00000000      -2.40831375
2
Properties=species:S:1:pos:R:3:forces:R:3 energy=-3.2011159299832816 pbc="F F F"
C        0.00000000       0.00000000       0.00000000       0.00000000       0.00000000       1.83719623
C        0.00000000       0.00000000       2.47272727       0.00000000       0.00000000      -1.83719623
2
Properties=species:S:1:pos:R:3:forces:R:3 energy=-3.1064849141635587 pbc="F F F"
C        0.00000000       0.00000000       0.00000000       0.00000000       0.00000000       1.40338433
C        0.00000000       0.00000000       2.53151515       0.00000000       0.00000000      -1.40338433
2
Properties=species:S:1:pos:R:3:forces:R:3 energy=-3.033887242917324 pbc="F F F"
C        0.00000000       0.00000000       0.00000000       0.00000000       0.00000000       1.08301687
C        0.00000000       0.00000000       2.59030303       0.00000000       0.00000000      -1.08301687
2
Properties=species:S:1:pos:R:3:forces:R:3 energy=-2.9774636411108992 pbc="F F F"
C        0.00000000       0.00000000       0.00000000       0.00000000       0.00000000       0.84876686
C        0.00000000       0.00000000       2.64909091       0.00000000       0.00000000      -0.84876686
2
Properties=species:S:1:pos:R:3:forces:R:3 energy=-2.932880737859435 pbc="F F F"
C        0.00000000       0.00000000       0.00000000       0.00000000       0.00000000       0.67657727
C        0.00000000       0.00000000       2.70787879       0.00000000       0.00000000      -0.67657727
2
Properties=species:S:1:pos:R:3:forces:R:3 energy=-2.8970593928917956 pbc="F F F"
C        0.00000000       0.00000000       0.00000000       0.00000000       0.00000000       0.54817802
C        0.00000000       0.00000000       2.76666667       0.00000000       0.00000000      -0.54817802
2
Properties=species:S:1:pos:R:3:forces:R:3 energy=-2.8678210512737485 pbc="F F F"
C        0.00000000       0.00000000       0.00000000       0.00000000       0.00000000       0.45091888
C        0.00000000       0.00000000       2.82545455       0.00000000       0.00000000      -0.45091888
2
Properties=species:S:1:pos:R:3:forces:R:3 energy=-2.8435955008346947 pbc="F F F"
C        0.00000000       0.00000000       0.00000000       0.00000000       0.00000000       0.37656116
C        0.00000000       0.00000000       2.88424242       0.00000000       0.00000000      -0.37656116
2
Properties=species:S:1:pos:R:3:forces:R:3 energy=-2.823202323110097 pbc="F F F"
C        0.00000000       0.00000000       0.00000000       0.00000000       0.00000000       0.31983292
C        0.00000000       0.00000000       2.94303030       0.00000000       0.00000000      -0.31983292
2
Properties=species:S:1:pos:R:3:forces:R:3 energy=-2.805715268016015 pbc="F F F"
C        0.00000000       0.00000000       0.00000000       0.00000000       0.00000000       0.27719977
C        0.00000000       0.00000000       3.00181818       0.00000000       0.00000000      -0.27719977
2
Properties=species:S:1:pos:R:3:forces:R:3 energy=-2.7903862125775722 pbc="F F F"
C        0.00000000       0.00000000       0.00000000       0.00000000       0.00000000       0.24601094
C        0.00000000       0.00000000       3.06060606       0.00000000       0.00000000      -0.24601094
2
Properties=species:S:1:pos:R:3:forces:R:3 energy=-2.7766108318213862 pbc="F F F"
C        0.00000000       0.00000000       0.00000000       0.00000000       0.00000000       0.22398439
C        0.00000000       0.00000000       3.11939394       0.00000000       0.00000000      -0.22398439
2
Properties=species:S:1:pos:R:3:forces:R:3 energy=-2.76391329880482 pbc="F F F"
C        0.00000000       0.00000000       0.00000000       0.00000000       0.00000000       0.20899521
C        0.00000000       0.00000000       3.17818182       0.00000000       0.00000000      -0.20899521
2
Properties=species:S:1:pos:R:3:forces:R:3 energy=-2.751939089293008 pbc="F F F"
C        0.00000000       0.00000000       0.00000000       0.00000000       0.00000000       0.19906354
C        0.00000000       0.00000000       3.23696970       0.00000000       0.00000000      -0.19906354
2
Properties=species:S:1:pos:R:3:forces:R:3 energy=-2.740443201045994 pbc="F F F"
C        0.00000000       0.00000000       0.00000000       0.00000000       0.00000000       0.19246231
C        0.00000000       0.00000000       3.29575758       0.00000000       0.00000000      -0.19246231
2
Properties=species:S:1:pos:R:3:forces:R:3 energy=-2.7292714858935643 pbc="F F F"
C        0.00000000       0.00000000       0.00000000       0.00000000       0.00000000       0.18784238
C        0.00000000       0.00000000       3.35454545       0.00000000       0.00000000      -0.18784238
2
Properties=species:S:1:pos:R:3:forces:R:3 energy=-2.7183366732448953 pbc="F F F"
C        0.00000000       0.00000000       0.00000000       0.00000000       0.00000000       0.18429956
C        0.00000000       0.00000000       3.41333333       0.00000000       0.00000000      -0.18429956
2
Properties=species:S:1:pos:R:3:forces:R:3 energy=-2.7075910953358706 pbc="F F F"
C        0.00000000       0.00000000       0.00000000       0.00000000       0.00000000       0.18134129
C        0.00000000       0.00000000       3.47212121       0.00000000       0.00000000      -0.18134129
2
Properties=species:S:1:pos:R:3:forces:R:3 energy=-2.6970081943660498 pbc="F F F"
C        0.00000000       0.00000000       0.00000000       0.00000000       0.00000000       0.17876202
C        0.00000000       0.00000000       3.53090909       0.00000000       0.00000000      -0.17876202
2
Properties=species:S:1:pos:R:3:forces:R:3 energy=-2.6865676542236114 pbc="F F F"
C        0.00000000       0.00000000       0.00000000       0.00000000       0.00000000       0.17646146
C        0.00000000       0.00000000       3.58969697       0.00000000       0.00000000      -0.17646146
2
Properties=species:S:1:pos:R:3:forces:R:3 energy=-2.6762576635019455 pbc="F F F"
C        0.00000000       0.00000000       0.00000000       0.00000000       0.00000000       0.17428696
C        0.00000000       0.00000000       3.64848485       0.00000000       0.00000000      -0.17428696
2
Properties=species:S:1:pos:R:3:forces:R:3 energy=-2.6660794169422575 pbc="F F F"
C        0.00000000       0.00000000       0.00000000       0.00000000       0.00000000       0.17192917
C        0.00000000       0.00000000       3.70727273       0.00000000       0.00000000      -0.17192917
2
Properties=species:S:1:pos:R:3:forces:R:3 energy=-2.6560556034677516 pbc="F F F"
C        0.00000000       0.00000000       0.00000000       0.00000000       0.00000000       0.16892539
C        0.00000000       0.00000000       3.76606061       0.00000000       0.00000000      -0.16892539
2
Properties=species:S:1:pos:R:3:forces:R:3 energy=-2.6462408950172005 pbc="F F F"
C        0.00000000       0.00000000       0.00000000       0.00000000       0.00000000       0.16474357
C        0.00000000       0.00000000       3.82484848       0.00000000       0.00000000      -0.16474357
2
Properties=species:S:1:pos:R:3:forces:R:3 energy=-2.636717885509545 pbc="F F F"
C        0.00000000       0.00000000       0.00000000       0.00000000       0.00000000       0.15892549
C        0.00000000       0.00000000       3.88363636       0.00000000       0.00000000      -0.15892549
2
Properties=species:S:1:pos:R:3:forces:R:3 energy=-2.6275920769261325 pbc="F F F"
C        0.00000000       0.00000000       0.00000000       0.00000000       0.00000000       0.15123478
C        0.00000000       0.00000000       3.94242424       0.00000000       0.00000000      -0.15123478
2
Properties=species:S:1:pos:R:3:forces:R:3 energy=-2.618971903627183 pbc="F F F"
C        0.00000000       0.00000000       0.00000000       0.00000000       0.00000000       0.14175625
C        0.00000000       0.00000000       4.00121212       0.00000000       0.00000000      -0.14175625
2
Properties=species:S:1:pos:R:3:forces:R:3 energy=-2.610951824035584 pbc="F F F"
C        0.00000000       0.00000000       0.00000000       0.00000000       0.00000000       0.13091072
C        0.00000000       0.00000000       4.06000000       0.00000000       0.00000000      -0.13091072
2
Properties=species:S:1:pos:R:3:forces:R:3 energy=-2.603593523978984 pbc="F F F"
C        0.00000000       0.00000000       0.00000000       0.00000000       0.00000000       0.11938009
C        0.00000000       0.00000000       4.11878788       0.00000000       0.00000000      -0.11938009
2
Properties=species:S:1:pos:R:3:forces:R:3 energy=-2.5969133470293655 pbc="F F F"
C        0.00000000       0.00000000       0.00000000       0.00000000       0.00000000       0.10796341
C        0.00000000       0.00000000       4.17757576       0.00000000       0.00000000      -0.10796341
2
Properties=species:S:1:pos:R:3:forces:R:3 energy=-2.5908820885546437 pbc="F F F"
C        0.00000000       0.00000000       0.00000000       0.00000000       0.00000000       0.09742737
C        0.00000000       0.00000000       4.23636364       0.00000000       0.00000000      -0.09742737
2
Properties=species:S:1:pos:R:3:forces:R:3 energy=-2.5854286187227284 pbc="F F F"
C        0.00000000       0.00000000       0.00000000       0.00000000       0.00000000       0.08838124
C        0.00000000       0.00000000       4.29515152       0.00000000       0.00000000      -0.08838124
2
Properties=species:S:1:pos:R:3:forces:R:3 energy=-2.58045376463209 pbc="F F F"
C        0.00000000       0.00000000       0.00000000       0.00000000       0.00000000       0.08120882
C        0.00000000       0.00000000       4.35393939       0.00000000       0.00000000      -0.08120882
2
Properties=species:S:1:pos:R:3:forces:R:3 energy=-2.5758415353878856 pbc="F F F"
C        0.00000000       0.00000000       0.00000000       0.00000000       0.00000000       0.07603374
C        0.00000000       0.00000000       4.41272727       0.00000000       0.00000000      -0.07603374
2
Properties=species:S:1:pos:R:3:forces:R:3 energy=-2.5714775369573735 pbc="F F F"
C        0.00000000       0.00000000       0.00000000       0.00000000       0.00000000       0.07271369
C        0.00000000       0.00000000       4.47151515       0.00000000       0.00000000      -0.07271369
2
Properties=species:S:1:pos:R:3:forces:R:3 energy=-2.567263522434859 pbc="F F F"
C        0.00000000       0.00000000       0.00000000       0.00000000       0.00000000       0.07084093
C        0.00000000       0.00000000       4.53030303       0.00000000       0.00000000      -0.07084093
2
Properties=species:S:1:pos:R:3:forces:R:3 energy=-2.5631322131953964 pbc="F F F"
C        0.00000000       0.00000000       0.00000000       0.00000000       0.00000000       0.06979519
C        0.00000000       0.00000000       4.58909091       0.00000000       0.00000000      -0.06979519
2
Properties=species:S:1:pos:R:3:forces:R:3 energy=-2.5590556641359052 pbc="F F F"
C        0.00000000       0.00000000       0.00000000       0.00000000       0.00000000       0.06884070
C        0.00000000       0.00000000       4.64787879       0.00000000       0.00000000      -0.06884070
2
Properties=species:S:1:pos:R:3:forces:R:3 energy=-2.5550500356105483 pbc="F F F"
C        0.00000000       0.00000000       0.00000000       0.00000000       0.00000000       0.06727513
C        0.00000000       0.00000000       4.70666667       0.00000000       0.00000000      -0.06727513
2
Properties=species:S:1:pos:R:3:forces:R:3 energy=-2.5511682254214922 pbc="F F F"
C        0.00000000       0.00000000       0.00000000       0.00000000       0.00000000       0.06457496
C        0.00000000       0.00000000       4.76545455       0.00000000       0.00000000      -0.06457496
2
Properties=species:S:1:pos:R:3:forces:R:3 energy=-2.547484619929289 pbc="F F F"
C        0.00000000       0.00000000       0.00000000       0.00000000       0.00000000       0.06050051
C        0.00000000       0.00000000       4.82424242       0.00000000       0.00000000      -0.06050051
2
Properties=species:S:1:pos:R:3:forces:R:3 energy=-2.544080556261228 pbc="F F F"
C        0.00000000       0.00000000       0.00000000       0.00000000       0.00000000       0.05512752
C        0.00000000       0.00000000       4.88303030       0.00000000       0.00000000      -0.05512752
2
Properties=species:S:1:pos:R:3:forces:R:3 energy=-2.5410216681905657 pbc="F F F"
C        0.00000000       0.00000000       0.00000000       0.00000000       0.00000000       0.04880843
C        0.00000000       0.00000000       4.94181818       0.00000000       0.00000000      -0.04880843
2
Properties=species:S:1:pos:R:3:forces:R:3 energy=-2.5383497959419365 pbc="F F F"
C        0.00000000       0.00000000       0.00000000       0.00000000       0.00000000       0.04207915
C        0.00000000       0.00000000       5.00060606       0.00000000       0.00000000      -0.04207915
2
Properties=species:S:1:pos:R:3:forces:R:3 energy=-2.5360705882272505 pbc="F F F"
C        0.00000000       0.00000000       0.00000000       0.00000000       0.00000000       0.03552752
C        0.00000000       0.00000000       5.05939394       0.00000000       0.00000000      -0.03552752
2
Properties=species:S:1:pos:R:3:forces:R:3 energy=-2.534158977557479 pbc="F F F"
C        0.00000000       0.00000000       0.00000000       0.00000000       0.00000000       0.02966561
C        0.00000000       0.00000000       5.11818182       0.00000000       0.00000000      -0.02966561
2
Properties=species:S:1:pos:R:3:forces:R:3 energy=-2.5325627650348634 pbc="F F F"
C        0.00000000       0.00000000       0.00000000       0.00000000       0.00000000       0.02481757
C        0.00000000       0.00000000       5.17696970       0.00000000       0.00000000      -0.02481757
2
Properties=species:S:1:pos:R:3:forces:R:3 energy=-2.5312193082675307 pbc="F F F"
C        0.00000000       0.00000000       0.00000000       0.00000000       0.00000000       0.02107668
C        0.00000000       0.00000000       5.23575758       0.00000000       0.00000000      -0.02107668
2
Properties=species:S:1:pos:R:3:forces:R:3 energy=-2.5300652887106745 pbc="F F F"
C        0.00000000       0.00000000       0.00000000       0.00000000       0.00000000       0.01832045
C        0.00000000       0.00000000       5.29454545       0.00000000       0.00000000      -0.01832045
2
Properties=species:S:1:pos:R:3:forces:R:3 energy=-2.529051023710913 pbc="F F F"
C        0.00000000       0.00000000       0.00000000       0.00000000       0.00000000       0.01628157
C        0.00000000       0.00000000       5.35333333       0.00000000       0.00000000      -0.01628157
2
Properties=species:S:1:pos:R:3:forces:R:3 energy=-2.528143081191105 pbc="F F F"
C        0.00000000       0.00000000       0.00000000       0.00000000       0.00000000       0.01464879
C        0.00000000       0.00000000       5.41212121       0.00000000       0.00000000      -0.01464879
2
Properties=species:S:1:pos:R:3:forces:R:3 energy=-2.527326186207023 pbc="F F F"
C        0.00000000       0.00000000       0.00000000       0.00000000       0.00000000       0.01314913
C        0.00000000       0.00000000       5.47090909       0.00000000       0.00000000      -0.01314913
2
Properties=species:S:1:pos:R:3:forces:R:3 energy=-2.526597974352696 pbc="F F F"
C        0.00000000       0.00000000       0.00000000       0.00000000       0.00000000       0.01160253
C        0.00000000       0.00000000       5.52969697       0.00000000       0.00000000      -0.01160253
2
Properties=species:S:1:pos:R:3:forces:R:3 energy=-2.52596446131243 pbc="F F F"
C        0.00000000       0.00000000       0.00000000       0.00000000       0.00000000       0.00993358
C        0.00000000       0.00000000       5.58848485       0.00000000       0.00000000      -0.00993358
2
Properties=species:S:1:pos:R:3:forces:R:3 energy=-2.5254326460441865 pbc="F F F"
C        0.00000000       0.00000000       0.00000000       0.00000000       0.00000000       0.00815950
C        0.00000000       0.00000000       5.64727273       0.00000000       0.00000000      -0.00815950
2
Properties=species:S:1:pos:R:3:forces:R:3 energy=-2.525005741814033 pbc="F F F"
C        0.00000000       0.00000000       0.00000000       0.00000000       0.00000000       0.00635626
C        0.00000000       0.00000000       5.70606061       0.00000000       0.00000000      -0.00635626
2
Properties=species:S:1:pos:R:3:forces:R:3 energy=-2.524682938569519 pbc="F F F"
C        0.00000000       0.00000000       0.00000000       0.00000000       0.00000000       0.00463050
C        0.00000000       0.00000000       5.76484848       0.00000000       0.00000000      -0.00463050
2
Properties=species:S:1:pos:R:3:forces:R:3 energy=-2.524457250638831 pbc="F F F"
C        0.00000000       0.00000000       0.00000000       0.00000000       0.00000000       0.00309867
C        0.00000000       0.00000000       5.82363636       0.00000000       0.00000000      -0.00309867
2
Properties=species:S:1:pos:R:3:forces:R:3 energy=-2.5243131333864555 pbc="F F F"
C        0.00000000       0.00000000       0.00000000       0.00000000       0.00000000       0.00187065
C        0.00000000       0.00000000       5.88242424       0.00000000       0.00000000      -0.00187065
2
Properties=species:S:1:pos:R:3:forces:R:3 energy=-2.5242295813182802 pbc="F F F"
C        0.00000000       0.00000000       0.00000000       0.00000000       0.00000000       0.00104624
C        0.00000000       0.00000000       5.94121212       0.00000000       0.00000000      -0.00104624
2
Properties=species:S:1:pos:R:3:forces:R:3 energy=-2.5241803625898944 pbc="F F F"
C        0.00000000       0.00000000       0.00000000       0.00000000       0.00000000       0.00071887
C        0.00000000       0.00000000       6.00000000       0.00000000       0.00000000      -0.00071887
