2
Properties=species:S:1:pos:R:3:forces:R:3 energy=2450.9947868981067 pbc="F F F"
Ca       0.00000000       0.00000000       0.00000000       0.00000000       0.00000000  -36531.95312500
Ca       0.00000000       0.00000000       0.18000000       0.00000000       0.00000000   36531.95312500
2
Properties=species:S:1:pos:R:3:forces:R:3 energy=1106.758947054357 pbc="F F F"
Ca       0.00000000       0.00000000       0.00000000       0.00000000       0.00000000  -13645.72167969
Ca       0.00000000       0.00000000       0.23878788       0.00000000       0.00000000   13645.72167969
2
Properties=species:S:1:pos:R:3:forces:R:3 energy=566.2934319176381 pbc="F F F"
Ca       0.00000000       0.00000000       0.00000000       0.00000000       0.00000000   -5978.54150391
Ca       0.00000000       0.00000000       0.29757576       0.00000000       0.00000000    5978.54150391
2
Properties=species:S:1:pos:R:3:forces:R:3 energy=317.5792290367787 pbc="F F F"
Ca       0.00000000       0.00000000       0.00000000       0.00000000       0.00000000   -2908.19091797
Ca       0.00000000       0.00000000       0.35636364       0.00000000       0.00000000    2908.19091797
2
Properties=species:S:1:pos:R:3:forces:R:3 energy=192.4679467008172 pbc="F F F"
Ca       0.00000000       0.00000000       0.00000000       0.00000000       0.00000000   -1518.33764648
Ca       0.00000000       0.00000000       0.41515152       0.00000000       0.00000000    1518.33764648
2
Properties=species:S:1:pos:R:3:forces:R:3 energy=125.59161919884006 pbc="F F F"
Ca       0.00000000       0.00000000       0.00000000       0.00000000       0.00000000    -832.87585449
Ca       0.00000000       0.00000000       0.47393939       0.00000000       0.00000000     832.87585449
2
Properties=species:S:1:pos:R:3:forces:R:3 energy=88.28147671976409 pbc="F F F"
Ca       0.00000000       0.00000000       0.00000000       0.00000000       0.00000000    -473.24935913
Ca       0.00000000       0.00000000       0.53272727       0.00000000       0.00000000     473.24935913
2
Properties=species:S:1:pos:R:3:forces:R:3 energy=66.82787874798831 pbc="F F F"
Ca       0.00000000       0.00000000       0.00000000       0.00000000       0.00000000    -275.53576660
Ca       0.00000000       0.00000000       0.59151515       0.00000000       0.00000000     275.53576660
2
Properties=species:S:1:pos:R:3:forces:R:3 energy=54.24195278077912 pbc="F F F"
Ca       0.00000000       0.00000000       0.00000000       0.00000000       0.00000000    -162.87782288
Ca       0.00000000       0.00000000       0.65030303       0.00000000       0.00000000     162.87782288
2
Properties=species:S:1:pos:R:3:forces:R:3 energy=46.76675226708712 pbc="F F F"
Ca       0.00000000       0.00000000       0.00000000       0.00000000       0.00000000     -97.27420044
Ca       0.00000000       0.00000000       0.70909091       0.00000000       0.00000000      97.27420044
2
Properties=species:S:1:pos:R:3:forces:R:3 energy=42.26813721760645 pbc="F F F"
Ca       0.00000000       0.00000000       0.00000000       0.00000000       0.00000000     -59.35543442
Ca       0.00000000       0.00000000       0.76787879       0.00000000       0.00000000      59.35543442
2
Properties=species:S:1:pos:R:3:forces:R:3 energy=39.44496402411073 pbc="F F F"
Ca       0.00000000       0.00000000       0.00000000       0.00000000       0.00000000     -39.09209442
Ca       0.00000000       0.00000000       0.82666667       0.00000000       0.00000000      39.09209442
2
Properties=species:S:1:pos:R:3:forces:R:3 energy=37.43085390242029 pbc="F F F"
Ca       0.00000000       0.00000000       0.00000000       0.00000000       0.00000000     -31.19758224
Ca       0.00000000       0.00000000       0.88545455       0.00000000       0.00000000      31.19758224
2
Properties=species:S:1:pos:R:3:forces:R:3 energy=35.5943867930648 pbc="F F F"
Ca       0.00000000       0.00000000       0.00000000       0.00000000       0.00000000     -32.63282394
Ca       0.00000000       0.00000000       0.94424242       0.00000000       0.00000000      32.63282394
2
Properties=species:S:1:pos:R:3:forces:R:3 energy=33.459808975221016 pbc="F F F"
Ca       0.00000000       0.00000000       0.00000000       0.00000000       0.00000000     -40.88978577
Ca       0.00000000       0.00000000       1.00303030       0.00000000       0.00000000      40.88978577
2
Properties=species:S:1:pos:R:3:forces:R:3 energy=30.715421573328587 pbc="F F F"
Ca       0.00000000       0.00000000       0.00000000       0.00000000       0.00000000     -52.74279785
Ca       0.00000000       0.00000000       1.06181818       0.00000000       0.00000000      52.74279785
2
Properties=species:S:1:pos:R:3:forces:R:3 energy=27.272546328772474 pbc="F F F"
Ca       0.00000000       0.00000000       0.00000000       0.00000000       0.00000000     -63.89510345
Ca       0.00000000       0.00000000       1.12060606       0.00000000       0.00000000      63.89510345
2
Properties=species:S:1:pos:R:3:forces:R:3 energy=23.2905842701931 pbc="F F F"
Ca       0.00000000       0.00000000       0.00000000       0.00000000       0.00000000     -70.70270538
Ca       0.00000000       0.00000000       1.17939394       0.00000000       0.00000000      70.70270538
2
Properties=species:S:1:pos:R:3:forces:R:3 energy=19.05736206238929 pbc="F F F"
Ca       0.00000000       0.00000000       0.00000000       0.00000000       0.00000000     -72.56202698
Ca       0.00000000       0.00000000       1.23818182       0.00000000       0.00000000      72.56202698
2
Properties=species:S:1:pos:R:3:forces:R:3 energy=14.842379610821489 pbc="F F F"
Ca       0.00000000       0.00000000       0.00000000       0.00000000       0.00000000     -70.12448883
Ca       0.00000000       0.00000000       1.29696970       0.00000000       0.00000000      70.12448883
2
Properties=species:S:1:pos:R:3:forces:R:3 energy=10.897765681290666 pbc="F F F"
Ca       0.00000000       0.00000000       0.00000000       0.00000000       0.00000000     -63.36530685
Ca       0.00000000       0.00000000       1.35575758       0.00000000       0.00000000      63.36530685
2
Properties=species:S:1:pos:R:3:forces:R:3 energy=7.461734956664 pbc="F F F"
Ca       0.00000000       0.00000000       0.00000000       0.00000000       0.00000000     -53.12026596
Ca       0.00000000       0.00000000       1.41454545       0.00000000       0.00000000      53.12026596
2
Properties=species:S:1:pos:R:3:forces:R:3 energy=4.676175793985481 pbc="F F F"
Ca       0.00000000       0.00000000       0.00000000       0.00000000       0.00000000     -41.60520935
Ca       0.00000000       0.00000000       1.47333333       0.00000000       0.00000000      41.60520935
2
Properties=species:S:1:pos:R:3:forces:R:3 energy=2.567738637034271 pbc="F F F"
Ca       0.00000000       0.00000000       0.00000000       0.00000000       0.00000000     -30.15203476
Ca       0.00000000       0.00000000       1.53212121       0.00000000       0.00000000      30.15203476
2
Properties=species:S:1:pos:R:3:forces:R:3 energy=1.1269045451802218 pbc="F F F"
Ca       0.00000000       0.00000000       0.00000000       0.00000000       0.00000000     -18.95410919
Ca       0.00000000       0.00000000       1.59090909       0.00000000       0.00000000      18.95410919
2
Properties=species:S:1:pos:R:3:forces:R:3 energy=0.31318593259935584 pbc="F F F"
Ca       0.00000000       0.00000000       0.00000000       0.00000000       0.00000000      -9.11190414
Ca       0.00000000       0.00000000       1.64969697       0.00000000       0.00000000       9.11190414
2
Properties=species:S:1:pos:R:3:forces:R:3 energy=-0.004255304141675492 pbc="F F F"
Ca       0.00000000       0.00000000       0.00000000       0.00000000       0.00000000      -2.25447321
Ca       0.00000000       0.00000000       1.70848485       0.00000000       0.00000000       2.25447321
2
Properties=species:S:1:pos:R:3:forces:R:3 energy=-0.013334114528754618 pbc="F F F"
Ca       0.00000000       0.00000000       0.00000000       0.00000000       0.00000000       1.50388682
Ca       0.00000000       0.00000000       1.76727273       0.00000000       0.00000000      -1.50388682
2
Properties=species:S:1:pos:R:3:forces:R:3 energy=0.1305839965647826 pbc="F F F"
Ca       0.00000000       0.00000000       0.00000000       0.00000000       0.00000000       3.10956860
Ca       0.00000000       0.00000000       1.82606061       0.00000000       0.00000000      -3.10956860
2
Properties=species:S:1:pos:R:3:forces:R:3 energy=0.32692935499953246 pbc="F F F"
Ca       0.00000000       0.00000000       0.00000000       0.00000000       0.00000000       3.41964126
Ca       0.00000000       0.00000000       1.88484848       0.00000000       0.00000000      -3.41964126
2
Properties=species:S:1:pos:R:3:forces:R:3 energy=0.5212711350110477 pbc="F F F"
Ca       0.00000000       0.00000000       0.00000000       0.00000000       0.00000000       3.13614154
Ca       0.00000000       0.00000000       1.94363636       0.00000000       0.00000000      -3.13614154
2
Properties=species:S:1:pos:R:3:forces:R:3 energy=0.6916950067501553 pbc="F F F"
Ca       0.00000000       0.00000000       0.00000000       0.00000000       0.00000000       2.64104772
Ca       0.00000000       0.00000000       2.00242424       0.00000000       0.00000000      -2.64104772
2
Properties=species:S:1:pos:R:3:forces:R:3 energy=0.8299864863691686 pbc="F F F"
Ca       0.00000000       0.00000000       0.00000000       0.00000000       0.00000000       2.05168748
Ca       0.00000000       0.00000000       2.06121212       0.00000000       0.00000000      -2.05168748
2
Properties=species:S:1:pos:R:3:forces:R:3 energy=0.9318037476353779 pbc="F F F"
Ca       0.00000000       0.00000000       0.00000000       0.00000000       0.00000000       1.40520179
Ca       0.00000000       0.00000000       2.12000000       0.00000000       0.00000000      -1.40520179
2
Properties=species:S:1:pos:R:3:forces:R:3 energy=0.9947173704242014 pbc="F F F"
Ca       0.00000000       0.00000000       0.00000000       0.00000000       0.00000000       0.73385203
Ca       0.00000000       0.00000000       2.17878788       0.00000000       0.00000000      -0.73385203
2
Properties=species:S:1:pos:R:3:forces:R:3 energy=1.01824587775876 pbc="F F F"
Ca       0.00000000       0.00000000       0.00000000       0.00000000       0.00000000       0.07049612
Ca       0.00000000       0.00000000       2.23757576       0.00000000       0.00000000      -0.07049612
2
Properties=species:S:1:pos:R:3:forces:R:3 energy=1.003742694893114 pbc="F F F"
Ca       0.00000000       0.00000000       0.00000000       0.00000000       0.00000000      -0.55542064
Ca       0.00000000       0.00000000       2.29636364       0.00000000       0.00000000       0.55542064
2
Properties=species:S:1:pos:R:3:forces:R:3 energy=0.9541819480579207 pbc="F F F"
Ca       0.00000000       0.00000000       0.00000000       0.00000000       0.00000000      -1.11823916
Ca       0.00000000       0.00000000       2.35515152       0.00000000       0.00000000       1.11823916
2
Properties=species:S:1:pos:R:3:forces:R:3 energy=0.8739208878499564 pbc="F F F"
Ca       0.00000000       0.00000000       0.00000000       0.00000000       0.00000000      -1.59677362
Ca       0.00000000       0.00000000       2.41393939       0.00000000       0.00000000       1.59677362
2
Properties=species:S:1:pos:R:3:forces:R:3 energy=0.7683744075218726 pbc="F F F"
Ca       0.00000000       0.00000000       0.00000000       0.00000000       0.00000000      -1.97677958
Ca       0.00000000       0.00000000       2.47272727       0.00000000       0.00000000       1.97677958
2
Properties=species:S:1:pos:R:3:forces:R:3 energy=0.6435470498222092 pbc="F F F"
Ca       0.00000000       0.00000000       0.00000000       0.00000000       0.00000000      -2.25253606
Ca       0.00000000       0.00000000       2.53151515       0.00000000       0.00000000       2.25253606
2
Properties=species:S:1:pos:R:3:forces:R:3 energy=0.5055453119523411 pbc="F F F"
Ca       0.00000000       0.00000000       0.00000000       0.00000000       0.00000000      -2.42578959
Ca       0.00000000       0.00000000       2.59030303       0.00000000       0.00000000       2.42578959
2
Properties=species:S:1:pos:R:3:forces:R:3 energy=0.36021029626508877 pbc="F F F"
Ca       0.00000000       0.00000000       0.00000000       0.00000000       0.00000000      -2.50337696
Ca       0.00000000       0.00000000       2.64909091       0.00000000       0.00000000       2.50337696
2
Properties=species:S:1:pos:R:3:forces:R:3 energy=0.2128713365893799 pbc="F F F"
Ca       0.00000000       0.00000000       0.00000000       0.00000000       0.00000000      -2.49621797
Ca       0.00000000       0.00000000       2.70787879       0.00000000       0.00000000       2.49621797
2
Properties=species:S:1:pos:R:3:forces:R:3 energy=0.06807583125831461 pbc="F F F"
Ca       0.00000000       0.00000000       0.00000000       0.00000000       0.00000000      -2.41981983
Ca       0.00000000       0.00000000       2.76666667       0.00000000       0.00000000       2.41981983
2
Properties=species:S:1:pos:R:3:forces:R:3 energy=-0.07066998793237854 pbc="F F F"
Ca       0.00000000       0.00000000       0.00000000       0.00000000       0.00000000      -2.29393005
Ca       0.00000000       0.00000000       2.82545455       0.00000000       0.00000000       2.29393005
2
Properties=species:S:1:pos:R:3:forces:R:3 energy=-0.2010755074762689 pbc="F F F"
Ca       0.00000000       0.00000000       0.00000000       0.00000000       0.00000000      -2.13935995
Ca       0.00000000       0.00000000       2.88424242       0.00000000       0.00000000       2.13935995
2
Properties=species:S:1:pos:R:3:forces:R:3 energy=-0.32198241905604175 pbc="F F F"
Ca       0.00000000       0.00000000       0.00000000       0.00000000       0.00000000      -1.97302008
Ca       0.00000000       0.00000000       2.94303030       0.00000000       0.00000000       1.97302008
2
Properties=species:S:1:pos:R:3:forces:R:3 energy=-0.43301404311955866 pbc="F F F"
Ca       0.00000000       0.00000000       0.00000000       0.00000000       0.00000000      -1.80427003
Ca       0.00000000       0.00000000       3.00181818       0.00000000       0.00000000       1.80427003
2
Properties=species:S:1:pos:R:3:forces:R:3 energy=-0.5341120258338482 pbc="F F F"
Ca       0.00000000       0.00000000       0.00000000       0.00000000       0.00000000      -1.63495994
Ca       0.00000000       0.00000000       3.06060606       0.00000000       0.00000000       1.63495994
2
Properties=species:S:1:pos:R:3:forces:R:3 energy=-0.6251848967202747 pbc="F F F"
Ca       0.00000000       0.00000000       0.00000000       0.00000000       0.00000000      -1.46261489
Ca       0.00000000       0.00000000       3.11939394       0.00000000       0.00000000       1.46261489
2
Properties=species:S:1:pos:R:3:forces:R:3 energy=-0.7059632794509724 pbc="F F F"
Ca       0.00000000       0.00000000       0.00000000       0.00000000       0.00000000      -1.28436410
Ca       0.00000000       0.00000000       3.17818182       0.00000000       0.00000000       1.28436410
2
Properties=species:S:1:pos:R:3:forces:R:3 energy=-0.7760615322189763 pbc="F F F"
Ca       0.00000000       0.00000000       0.00000000       0.00000000       0.00000000      -1.09939706
Ca       0.00000000       0.00000000       3.23696970       0.00000000       0.00000000       1.09939706
2
Properties=species:S:1:pos:R:3:forces:R:3 energy=-0.8351245947880788 pbc="F F F"
Ca       0.00000000       0.00000000       0.00000000       0.00000000       0.00000000      -0.90936559
Ca       0.00000000       0.00000000       3.29575758       0.00000000       0.00000000       0.90936559
2
Properties=species:S:1:pos:R:3:forces:R:3 energy=-0.8829465663417913 pbc="F F F"
Ca       0.00000000       0.00000000       0.00000000       0.00000000       0.00000000      -0.71758801
Ca       0.00000000       0.00000000       3.35454545       0.00000000       0.00000000       0.71758801
2
Properties=species:S:1:pos:R:3:forces:R:3 energy=-0.9195409934467176 pbc="F F F"
Ca       0.00000000       0.00000000       0.00000000       0.00000000       0.00000000      -0.52813178
Ca       0.00000000       0.00000000       3.41333333       0.00000000       0.00000000       0.52813178
2
Properties=species:S:1:pos:R:3:forces:R:3 energy=-0.9451728247257398 pbc="F F F"
Ca       0.00000000       0.00000000       0.00000000       0.00000000       0.00000000      -0.34536466
Ca       0.00000000       0.00000000       3.47212121       0.00000000       0.00000000       0.34536466
2
Properties=species:S:1:pos:R:3:forces:R:3 energy=-0.9603710010293646 pbc="F F F"
Ca       0.00000000       0.00000000       0.00000000       0.00000000       0.00000000      -0.17399284
Ca       0.00000000       0.00000000       3.53090909       0.00000000       0.00000000       0.17399284
2
Properties=species:S:1:pos:R:3:forces:R:3 energy=-0.9659522239541738 pbc="F F F"
Ca       0.00000000       0.00000000       0.00000000       0.00000000       0.00000000      -0.01905444
Ca       0.00000000       0.00000000       3.58969697       0.00000000       0.00000000       0.01905444
2
Properties=species:S:1:pos:R:3:forces:R:3 energy=-0.9630321560613195 pbc="F F F"
Ca       0.00000000       0.00000000       0.00000000       0.00000000       0.00000000       0.11442779
Ca       0.00000000       0.00000000       3.64848485       0.00000000       0.00000000      -0.11442779
2
Properties=species:S:1:pos:R:3:forces:R:3 energy=-0.9530030669685928 pbc="F F F"
Ca       0.00000000       0.00000000       0.00000000       0.00000000       0.00000000       0.22221734
Ca       0.00000000       0.00000000       3.70727273       0.00000000       0.00000000      -0.22221734
2
Properties=species:S:1:pos:R:3:forces:R:3 energy=-0.937460735003746 pbc="F F F"
Ca       0.00000000       0.00000000       0.00000000       0.00000000       0.00000000       0.30168068
Ca       0.00000000       0.00000000       3.76606061       0.00000000       0.00000000      -0.30168068
2
Properties=species:S:1:pos:R:3:forces:R:3 energy=-0.9180993155730524 pbc="F F F"
Ca       0.00000000       0.00000000       0.00000000       0.00000000       0.00000000       0.35230041
Ca       0.00000000       0.00000000       3.82484848       0.00000000       0.00000000      -0.35230041
2
Properties=species:S:1:pos:R:3:forces:R:3 energy=-0.8965706725684682 pbc="F F F"
Ca       0.00000000       0.00000000       0.00000000       0.00000000       0.00000000       0.37589714
Ca       0.00000000       0.00000000       3.88363636       0.00000000       0.00000000      -0.37589714
2
Properties=species:S:1:pos:R:3:forces:R:3 energy=-0.874347114697069 pbc="F F F"
Ca       0.00000000       0.00000000       0.00000000       0.00000000       0.00000000       0.37692851
Ca       0.00000000       0.00000000       3.94242424       0.00000000       0.00000000      -0.37692851
2
Properties=species:S:1:pos:R:3:forces:R:3 energy=-0.8525475588825876 pbc="F F F"
Ca       0.00000000       0.00000000       0.00000000       0.00000000       0.00000000       0.36304161
Ca       0.00000000       0.00000000       4.00121212       0.00000000       0.00000000      -0.36304161
2
Properties=species:S:1:pos:R:3:forces:R:3 energy=-0.8317498165827528 pbc="F F F"
Ca       0.00000000       0.00000000       0.00000000       0.00000000       0.00000000       0.34467655
Ca       0.00000000       0.00000000       4.06000000       0.00000000       0.00000000      -0.34467655
2
Properties=species:S:1:pos:R:3:forces:R:3 energy=-0.8119113518827178 pbc="F F F"
Ca       0.00000000       0.00000000       0.00000000       0.00000000       0.00000000       0.33175269
Ca       0.00000000       0.00000000       4.11878788       0.00000000       0.00000000      -0.33175269
2
Properties=species:S:1:pos:R:3:forces:R:3 energy=-0.7925435326185012 pbc="F F F"
Ca       0.00000000       0.00000000       0.00000000       0.00000000       0.00000000       0.32881314
Ca       0.00000000       0.00000000       4.17757576       0.00000000       0.00000000      -0.32881314
2
Properties=species:S:1:pos:R:3:forces:R:3 energy=-0.7730893872887142 pbc="F F F"
Ca       0.00000000       0.00000000       0.00000000       0.00000000       0.00000000       0.33401471
Ca       0.00000000       0.00000000       4.23636364       0.00000000       0.00000000      -0.33401471
2
Properties=species:S:1:pos:R:3:forces:R:3 energy=-0.7531966303666477 pbc="F F F"
Ca       0.00000000       0.00000000       0.00000000       0.00000000       0.00000000       0.34307083
Ca       0.00000000       0.00000000       4.29515152       0.00000000       0.00000000      -0.34307083
2
Properties=species:S:1:pos:R:3:forces:R:3 energy=-0.7327361906534208 pbc="F F F"
Ca       0.00000000       0.00000000       0.00000000       0.00000000       0.00000000       0.35305992
Ca       0.00000000       0.00000000       4.35393939       0.00000000       0.00000000      -0.35305992
2
Properties=species:S:1:pos:R:3:forces:R:3 energy=-0.7116843017727393 pbc="F F F"
Ca       0.00000000       0.00000000       0.00000000       0.00000000       0.00000000       0.36316270
Ca       0.00000000       0.00000000       4.41272727       0.00000000       0.00000000      -0.36316270
2
Properties=species:S:1:pos:R:3:forces:R:3 energy=-0.6900281381840041 pbc="F F F"
Ca       0.00000000       0.00000000       0.00000000       0.00000000       0.00000000       0.37370822
Ca       0.00000000       0.00000000       4.47151515       0.00000000       0.00000000      -0.37370822
2
Properties=species:S:1:pos:R:3:forces:R:3 energy=-0.667725860142802 pbc="F F F"
Ca       0.00000000       0.00000000       0.00000000       0.00000000       0.00000000       0.38521010
Ca       0.00000000       0.00000000       4.53030303       0.00000000       0.00000000      -0.38521010
2
Properties=species:S:1:pos:R:3:forces:R:3 energy=-0.6447137729200438 pbc="F F F"
Ca       0.00000000       0.00000000       0.00000000       0.00000000       0.00000000       0.39787632
Ca       0.00000000       0.00000000       4.58909091       0.00000000       0.00000000      -0.39787632
2
Properties=species:S:1:pos:R:3:forces:R:3 energy=-0.6209273641227504 pbc="F F F"
Ca       0.00000000       0.00000000       0.00000000       0.00000000       0.00000000       0.41146541
Ca       0.00000000       0.00000000       4.64787879       0.00000000       0.00000000      -0.41146541
2
Properties=species:S:1:pos:R:3:forces:R:3 energy=-0.5963300748920781 pbc="F F F"
Ca       0.00000000       0.00000000       0.00000000       0.00000000       0.00000000       0.42529339
Ca       0.00000000       0.00000000       4.70666667       0.00000000       0.00000000      -0.42529339
2
Properties=species:S:1:pos:R:3:forces:R:3 energy=-0.5709378629579428 pbc="F F F"
Ca       0.00000000       0.00000000       0.00000000       0.00000000       0.00000000       0.43834871
Ca       0.00000000       0.00000000       4.76545455       0.00000000       0.00000000      -0.43834871
2
Properties=species:S:1:pos:R:3:forces:R:3 energy=-0.5448296490920275 pbc="F F F"
Ca       0.00000000       0.00000000       0.00000000       0.00000000       0.00000000       0.44940975
Ca       0.00000000       0.00000000       4.82424242       0.00000000       0.00000000      -0.44940975
2
Properties=species:S:1:pos:R:3:forces:R:3 energy=-0.518163852509625 pbc="F F F"
Ca       0.00000000       0.00000000       0.00000000       0.00000000       0.00000000       0.45719275
Ca       0.00000000       0.00000000       4.88303030       0.00000000       0.00000000      -0.45719275
2
Properties=species:S:1:pos:R:3:forces:R:3 energy=-0.4911629432836265 pbc="F F F"
Ca       0.00000000       0.00000000       0.00000000       0.00000000       0.00000000       0.46050203
Ca       0.00000000       0.00000000       4.94181818       0.00000000       0.00000000      -0.46050203
2
Properties=species:S:1:pos:R:3:forces:R:3 energy=-0.4641255830733687 pbc="F F F"
Ca       0.00000000       0.00000000       0.00000000       0.00000000       0.00000000       0.45830846
Ca       0.00000000       0.00000000       5.00060606       0.00000000       0.00000000      -0.45830846
2
Properties=species:S:1:pos:R:3:forces:R:3 energy=-0.437397761397613 pbc="F F F"
Ca       0.00000000       0.00000000       0.00000000       0.00000000       0.00000000       0.44990492
Ca       0.00000000       0.00000000       5.05939394       0.00000000       0.00000000      -0.44990492
2
Properties=species:S:1:pos:R:3:forces:R:3 energy=-0.411355851704405 pbc="F F F"
Ca       0.00000000       0.00000000       0.00000000       0.00000000       0.00000000       0.43495867
Ca       0.00000000       0.00000000       5.11818182       0.00000000       0.00000000      -0.43495867
2
Properties=species:S:1:pos:R:3:forces:R:3 energy=-0.38638476718877474 pbc="F F F"
Ca       0.00000000       0.00000000       0.00000000       0.00000000       0.00000000       0.41358560
Ca       0.00000000       0.00000000       5.17696970       0.00000000       0.00000000      -0.41358560
2
Properties=species:S:1:pos:R:3:forces:R:3 energy=-0.36284524322251027 pbc="F F F"
Ca       0.00000000       0.00000000       0.00000000       0.00000000       0.00000000       0.38636684
Ca       0.00000000       0.00000000       5.23575758       0.00000000       0.00000000      -0.38636684
2
Properties=species:S:1:pos:R:3:forces:R:3 energy=-0.3410537435452769 pbc="F F F"
Ca       0.00000000       0.00000000       0.00000000       0.00000000       0.00000000       0.35431066
Ca       0.00000000       0.00000000       5.29454545       0.00000000       0.00000000      -0.35431066
2
Properties=species:S:1:pos:R:3:forces:R:3 energy=-0.3212546096403726 pbc="F F F"
Ca       0.00000000       0.00000000       0.00000000       0.00000000       0.00000000       0.31876352
Ca       0.00000000       0.00000000       5.35333333       0.00000000       0.00000000      -0.31876352
2
Properties=species:S:1:pos:R:3:forces:R:3 energy=-0.30361099190923146 pbc="F F F"
Ca       0.00000000       0.00000000       0.00000000       0.00000000       0.00000000       0.28126350
Ca       0.00000000       0.00000000       5.41212121       0.00000000       0.00000000      -0.28126350
2
Properties=species:S:1:pos:R:3:forces:R:3 energy=-0.28819215211221916 pbc="F F F"
Ca       0.00000000       0.00000000       0.00000000       0.00000000       0.00000000       0.24337268
Ca       0.00000000       0.00000000       5.47090909       0.00000000       0.00000000      -0.24337268
2
Properties=species:S:1:pos:R:3:forces:R:3 energy=-0.2749766514031499 pbc="F F F"
Ca       0.00000000       0.00000000       0.00000000       0.00000000       0.00000000       0.20648031
Ca       0.00000000       0.00000000       5.52969697       0.00000000       0.00000000      -0.20648031
2
Properties=species:S:1:pos:R:3:forces:R:3 energy=-0.26387326157819163 pbc="F F F"
Ca       0.00000000       0.00000000       0.00000000       0.00000000       0.00000000       0.17171896
Ca       0.00000000       0.00000000       5.58848485       0.00000000       0.00000000      -0.17171896
2
Properties=species:S:1:pos:R:3:forces:R:3 energy=-0.25472845296238156 pbc="F F F"
Ca       0.00000000       0.00000000       0.00000000       0.00000000       0.00000000       0.13994530
Ca       0.00000000       0.00000000       5.64727273       0.00000000       0.00000000      -0.13994530
2
Properties=species:S:1:pos:R:3:forces:R:3 energy=-0.24735063261721796 pbc="F F F"
Ca       0.00000000       0.00000000       0.00000000       0.00000000       0.00000000       0.11175135
Ca       0.00000000       0.00000000       5.70606061       0.00000000       0.00000000      -0.11175135
2
Properties=species:S:1:pos:R:3:forces:R:3 energy=-0.24150773504229436 pbc="F F F"
Ca       0.00000000       0.00000000       0.00000000       0.00000000       0.00000000       0.08751971
Ca       0.00000000       0.00000000       5.76484848       0.00000000       0.00000000      -0.08751971
2
Properties=species:S:1:pos:R:3:forces:R:3 energy=-0.23697260734255848 pbc="F F F"
Ca       0.00000000       0.00000000       0.00000000       0.00000000       0.00000000       0.06761628
Ca       0.00000000       0.00000000       5.82363636       0.00000000       0.00000000      -0.06761628
2
Properties=species:S:1:pos:R:3:forces:R:3 energy=-0.23347154590921188 pbc="F F F"
Ca       0.00000000       0.00000000       0.00000000       0.00000000       0.00000000       0.05237664
Ca       0.00000000       0.00000000       5.88242424       0.00000000       0.00000000      -0.05237664
2
Properties=species:S:1:pos:R:3:forces:R:3 energy=-0.23071517454558363 pbc="F F F"
Ca       0.00000000       0.00000000       0.00000000       0.00000000       0.00000000       0.04219393
Ca       0.00000000       0.00000000       5.94121212       0.00000000       0.00000000      -0.04219393
2
Properties=species:S:1:pos:R:3:forces:R:3 energy=-0.2284001592686199 pbc="F F F"
Ca       0.00000000       0.00000000       0.00000000       0.00000000       0.00000000       0.03754949
Ca       0.00000000       0.00000000       6.00000000       0.00000000       0.00000000      -0.03754949
