2
Properties=species:S:1:pos:R:3:forces:R:3 energy=2450.9952751793567 pbc="F F F"
Ca       0.00000000       0.00000000       0.00000000       0.00000000       0.00000000  -36531.95703125
Ca       0.00000000       0.00000000       0.18000000       0.00000000       0.00000000   36531.95703125
2
Properties=species:S:1:pos:R:3:forces:R:3 energy=1106.7588249840444 pbc="F F F"
Ca       0.00000000       0.00000000       0.00000000       0.00000000       0.00000000  -13645.72167969
Ca       0.00000000       0.00000000       0.23878788       0.00000000       0.00000000   13645.72167969
2
Properties=species:S:1:pos:R:3:forces:R:3 energy=566.2933708824819 pbc="F F F"
Ca       0.00000000       0.00000000       0.00000000       0.00000000       0.00000000   -5978.54101562
Ca       0.00000000       0.00000000       0.29757576       0.00000000       0.00000000    5978.54101562
2
Properties=species:S:1:pos:R:3:forces:R:3 energy=317.5791985192006 pbc="F F F"
Ca       0.00000000       0.00000000       0.00000000       0.00000000       0.00000000   -2908.19067383
Ca       0.00000000       0.00000000       0.35636364       0.00000000       0.00000000    2908.19067383
2
Properties=species:S:1:pos:R:3:forces:R:3 energy=192.46796195960627 pbc="F F F"
Ca       0.00000000       0.00000000       0.00000000       0.00000000       0.00000000   -1518.33764648
Ca       0.00000000       0.00000000       0.41515152       0.00000000       0.00000000    1518.33764648
2
Properties=species:S:1:pos:R:3:forces:R:3 energy=125.59161919884006 pbc="F F F"
Ca       0.00000000       0.00000000       0.00000000       0.00000000       0.00000000    -832.87591553
Ca       0.00000000       0.00000000       0.47393939       0.00000000       0.00000000     832.87591553
2
Properties=species:S:1:pos:R:3:forces:R:3 energy=88.28142331400237 pbc="F F F"
Ca       0.00000000       0.00000000       0.00000000       0.00000000       0.00000000    -473.24935913
Ca       0.00000000       0.00000000       0.53272727       0.00000000       0.00000000     473.24935913
2
Properties=species:S:1:pos:R:3:forces:R:3 energy=66.82790926556643 pbc="F F F"
Ca       0.00000000       0.00000000       0.00000000       0.00000000       0.00000000    -275.53582764
Ca       0.00000000       0.00000000       0.59151515       0.00000000       0.00000000     275.53582764
2
Properties=species:S:1:pos:R:3:forces:R:3 energy=54.241941336687326 pbc="F F F"
Ca       0.00000000       0.00000000       0.00000000       0.00000000       0.00000000    -162.87779236
Ca       0.00000000       0.00000000       0.65030303       0.00000000       0.00000000     162.87779236
2
Properties=species:S:1:pos:R:3:forces:R:3 energy=46.76674463769259 pbc="F F F"
Ca       0.00000000       0.00000000       0.00000000       0.00000000       0.00000000     -97.27416992
Ca       0.00000000       0.00000000       0.70909091       0.00000000       0.00000000      97.27416992
2
Properties=species:S:1:pos:R:3:forces:R:3 energy=42.268087626542 pbc="F F F"
Ca       0.00000000       0.00000000       0.00000000       0.00000000       0.00000000     -59.35541153
Ca       0.00000000       0.00000000       0.76787879       0.00000000       0.00000000      59.35541153
2
Properties=species:S:1:pos:R:3:forces:R:3 energy=39.444952580018935 pbc="F F F"
Ca       0.00000000       0.00000000       0.00000000       0.00000000       0.00000000     -39.09209824
Ca       0.00000000       0.00000000       0.82666667       0.00000000       0.00000000      39.09209824
2
Properties=species:S:1:pos:R:3:forces:R:3 energy=37.43085390242029 pbc="F F F"
Ca       0.00000000       0.00000000       0.00000000       0.00000000       0.00000000     -31.19762802
Ca       0.00000000       0.00000000       0.88545455       0.00000000       0.00000000      31.19762802
2
Properties=species:S:1:pos:R:3:forces:R:3 energy=35.59437916367027 pbc="F F F"
Ca       0.00000000       0.00000000       0.00000000       0.00000000       0.00000000     -32.63280106
Ca       0.00000000       0.00000000       0.94424242       0.00000000       0.00000000      32.63280106
2
Properties=species:S:1:pos:R:3:forces:R:3 energy=33.45981660461555 pbc="F F F"
Ca       0.00000000       0.00000000       0.00000000       0.00000000       0.00000000     -40.88983154
Ca       0.00000000       0.00000000       1.00303030       0.00000000       0.00000000      40.88983154
2
Properties=species:S:1:pos:R:3:forces:R:3 energy=30.715419665979955 pbc="F F F"
Ca       0.00000000       0.00000000       0.00000000       0.00000000       0.00000000     -52.74274826
Ca       0.00000000       0.00000000       1.06181818       0.00000000       0.00000000      52.74274826
2
Properties=species:S:1:pos:R:3:forces:R:3 energy=27.27250245975392 pbc="F F F"
Ca       0.00000000       0.00000000       0.00000000       0.00000000       0.00000000     -63.89495468
Ca       0.00000000       0.00000000       1.12060606       0.00000000       0.00000000      63.89495468
2
Properties=species:S:1:pos:R:3:forces:R:3 energy=23.290593806936265 pbc="F F F"
Ca       0.00000000       0.00000000       0.00000000       0.00000000       0.00000000     -70.70272827
Ca       0.00000000       0.00000000       1.17939394       0.00000000       0.00000000      70.70272827
2
Properties=species:S:1:pos:R:3:forces:R:3 energy=19.057335359508432 pbc="F F F"
Ca       0.00000000       0.00000000       0.00000000       0.00000000       0.00000000     -72.56196594
Ca       0.00000000       0.00000000       1.23818182       0.00000000       0.00000000      72.56196594
2
Properties=species:S:1:pos:R:3:forces:R:3 energy=14.842398684307817 pbc="F F F"
Ca       0.00000000       0.00000000       0.00000000       0.00000000       0.00000000     -70.12454224
Ca       0.00000000       0.00000000       1.29696970       0.00000000       0.00000000      70.12454224
2
Properties=species:S:1:pos:R:3:forces:R:3 energy=10.8977618665934 pbc="F F F"
Ca       0.00000000       0.00000000       0.00000000       0.00000000       0.00000000     -63.36529160
Ca       0.00000000       0.00000000       1.35575758       0.00000000       0.00000000      63.36529160
2
Properties=species:S:1:pos:R:3:forces:R:3 energy=7.461736864012633 pbc="F F F"
Ca       0.00000000       0.00000000       0.00000000       0.00000000       0.00000000     -53.12026978
Ca       0.00000000       0.00000000       1.41454545       0.00000000       0.00000000      53.12026978
2
Properties=species:S:1:pos:R:3:forces:R:3 energy=4.676175793985481 pbc="F F F"
Ca       0.00000000       0.00000000       0.00000000       0.00000000       0.00000000     -41.60521317
Ca       0.00000000       0.00000000       1.47333333       0.00000000       0.00000000      41.60521317
2
Properties=species:S:1:pos:R:3:forces:R:3 energy=2.5677374449413755 pbc="F F F"
Ca       0.00000000       0.00000000       0.00000000       0.00000000       0.00000000     -30.15203667
Ca       0.00000000       0.00000000       1.53212121       0.00000000       0.00000000      30.15203667
2
Properties=species:S:1:pos:R:3:forces:R:3 energy=1.1269056180638277 pbc="F F F"
Ca       0.00000000       0.00000000       0.00000000       0.00000000       0.00000000     -18.95409584
Ca       0.00000000       0.00000000       1.59090909       0.00000000       0.00000000      18.95409584
2
Properties=species:S:1:pos:R:3:forces:R:3 energy=0.31318515773897376 pbc="F F F"
Ca       0.00000000       0.00000000       0.00000000       0.00000000       0.00000000      -9.11189461
Ca       0.00000000       0.00000000       1.64969697       0.00000000       0.00000000       9.11189461
2
Properties=species:S:1:pos:R:3:forces:R:3 energy=-0.004255363746320268 pbc="F F F"
Ca       0.00000000       0.00000000       0.00000000       0.00000000       0.00000000      -2.25445819
Ca       0.00000000       0.00000000       1.70848485       0.00000000       0.00000000       2.25445819
2
Properties=species:S:1:pos:R:3:forces:R:3 energy=-0.013333458877662088 pbc="F F F"
Ca       0.00000000       0.00000000       0.00000000       0.00000000       0.00000000       1.50388956
Ca       0.00000000       0.00000000       1.76727273       0.00000000       0.00000000      -1.50388956
2
Properties=species:S:1:pos:R:3:forces:R:3 energy=0.13058429458800647 pbc="F F F"
Ca       0.00000000       0.00000000       0.00000000       0.00000000       0.00000000       3.10957050
Ca       0.00000000       0.00000000       1.82606061       0.00000000       0.00000000      -3.10957050
2
Properties=species:S:1:pos:R:3:forces:R:3 energy=0.32692893776701903 pbc="F F F"
Ca       0.00000000       0.00000000       0.00000000       0.00000000       0.00000000       3.41964221
Ca       0.00000000       0.00000000       1.88484848       0.00000000       0.00000000      -3.41964221
2
Properties=species:S:1:pos:R:3:forces:R:3 energy=0.5212722078946537 pbc="F F F"
Ca       0.00000000       0.00000000       0.00000000       0.00000000       0.00000000       3.13614511
Ca       0.00000000       0.00000000       1.94363636       0.00000000       0.00000000      -3.13614511
2
Properties=species:S:1:pos:R:3:forces:R:3 energy=0.6916965564709194 pbc="F F F"
Ca       0.00000000       0.00000000       0.00000000       0.00000000       0.00000000       2.64104319
Ca       0.00000000       0.00000000       2.00242424       0.00000000       0.00000000      -2.64104319
2
Properties=species:S:1:pos:R:3:forces:R:3 energy=0.8299867501303249 pbc="F F F"
Ca       0.00000000       0.00000000       0.00000000       0.00000000       0.00000000       2.05168724
Ca       0.00000000       0.00000000       2.06121212       0.00000000       0.00000000      -2.05168724
2
Properties=species:S:1:pos:R:3:forces:R:3 energy=0.9318025555424824 pbc="F F F"
Ca       0.00000000       0.00000000       0.00000000       0.00000000       0.00000000       1.40520513
Ca       0.00000000       0.00000000       2.12000000       0.00000000       0.00000000      -1.40520513
2
Properties=species:S:1:pos:R:3:forces:R:3 energy=0.99471772805207 pbc="F F F"
Ca       0.00000000       0.00000000       0.00000000       0.00000000       0.00000000       0.73385036
Ca       0.00000000       0.00000000       2.17878788       0.00000000       0.00000000      -0.73385036
2
Properties=species:S:1:pos:R:3:forces:R:3 energy=1.0182455201308913 pbc="F F F"
Ca       0.00000000       0.00000000       0.00000000       0.00000000       0.00000000       0.07049642
Ca       0.00000000       0.00000000       2.23757576       0.00000000       0.00000000      -0.07049642
2
Properties=species:S:1:pos:R:3:forces:R:3 energy=1.0037432782682731 pbc="F F F"
Ca       0.00000000       0.00000000       0.00000000       0.00000000       0.00000000      -0.55541813
Ca       0.00000000       0.00000000       2.29636364       0.00000000       0.00000000       0.55541813
2
Properties=species:S:1:pos:R:3:forces:R:3 energy=0.9541812328021834 pbc="F F F"
Ca       0.00000000       0.00000000       0.00000000       0.00000000       0.00000000      -1.11824107
Ca       0.00000000       0.00000000       2.35515152       0.00000000       0.00000000       1.11824107
2
Properties=species:S:1:pos:R:3:forces:R:3 energy=0.8739208878499564 pbc="F F F"
Ca       0.00000000       0.00000000       0.00000000       0.00000000       0.00000000      -1.59677827
Ca       0.00000000       0.00000000       2.41393939       0.00000000       0.00000000       1.59677827
2
Properties=species:S:1:pos:R:3:forces:R:3 energy=0.7683755996147681 pbc="F F F"
Ca       0.00000000       0.00000000       0.00000000       0.00000000       0.00000000      -1.97677875
Ca       0.00000000       0.00000000       2.47272727       0.00000000       0.00000000       1.97677875
2
Properties=species:S:1:pos:R:3:forces:R:3 energy=0.6435478842872361 pbc="F F F"
Ca       0.00000000       0.00000000       0.00000000       0.00000000       0.00000000      -2.25253630
Ca       0.00000000       0.00000000       2.53151515       0.00000000       0.00000000       2.25253630
2
Properties=species:S:1:pos:R:3:forces:R:3 energy=0.5055444774873142 pbc="F F F"
Ca       0.00000000       0.00000000       0.00000000       0.00000000       0.00000000      -2.42578864
Ca       0.00000000       0.00000000       2.59030303       0.00000000       0.00000000       2.42578864
2
Properties=species:S:1:pos:R:3:forces:R:3 energy=0.36021005784650967 pbc="F F F"
Ca       0.00000000       0.00000000       0.00000000       0.00000000       0.00000000      -2.50337601
Ca       0.00000000       0.00000000       2.64909091       0.00000000       0.00000000       2.50337601
2
Properties=species:S:1:pos:R:3:forces:R:3 energy=0.21287097896151125 pbc="F F F"
Ca       0.00000000       0.00000000       0.00000000       0.00000000       0.00000000      -2.49621725
Ca       0.00000000       0.00000000       2.70787879       0.00000000       0.00000000       2.49621725
2
Properties=species:S:1:pos:R:3:forces:R:3 energy=0.06807589086295938 pbc="F F F"
Ca       0.00000000       0.00000000       0.00000000       0.00000000       0.00000000      -2.41982102
Ca       0.00000000       0.00000000       2.76666667       0.00000000       0.00000000       2.41982102
2
Properties=species:S:1:pos:R:3:forces:R:3 energy=-0.07067006466805711 pbc="F F F"
Ca       0.00000000       0.00000000       0.00000000       0.00000000       0.00000000      -2.29392910
Ca       0.00000000       0.00000000       2.82545455       0.00000000       0.00000000       2.29392910
2
Properties=species:S:1:pos:R:3:forces:R:3 energy=-0.2010759917640077 pbc="F F F"
Ca       0.00000000       0.00000000       0.00000000       0.00000000       0.00000000      -2.13935971
Ca       0.00000000       0.00000000       2.88424242       0.00000000       0.00000000       2.13935971
2
Properties=species:S:1:pos:R:3:forces:R:3 energy=-0.32198234232036316 pbc="F F F"
Ca       0.00000000       0.00000000       0.00000000       0.00000000       0.00000000      -1.97301912
Ca       0.00000000       0.00000000       2.94303030       0.00000000       0.00000000       1.97301912
2
Properties=species:S:1:pos:R:3:forces:R:3 energy=-0.4330139537125915 pbc="F F F"
Ca       0.00000000       0.00000000       0.00000000       0.00000000       0.00000000      -1.80427051
Ca       0.00000000       0.00000000       3.00181818       0.00000000       0.00000000       1.80427051
2
Properties=species:S:1:pos:R:3:forces:R:3 energy=-0.5341122724639707 pbc="F F F"
Ca       0.00000000       0.00000000       0.00000000       0.00000000       0.00000000      -1.63496041
Ca       0.00000000       0.00000000       3.06060606       0.00000000       0.00000000       1.63496041
2
Properties=species:S:1:pos:R:3:forces:R:3 energy=-0.6251848371156299 pbc="F F F"
Ca       0.00000000       0.00000000       0.00000000       0.00000000       0.00000000      -1.46261442
Ca       0.00000000       0.00000000       3.11939394       0.00000000       0.00000000       1.46261442
2
Properties=species:S:1:pos:R:3:forces:R:3 energy=-0.7059634582649067 pbc="F F F"
Ca       0.00000000       0.00000000       0.00000000       0.00000000       0.00000000      -1.28436351
Ca       0.00000000       0.00000000       3.17818182       0.00000000       0.00000000       1.28436351
2
Properties=species:S:1:pos:R:3:forces:R:3 energy=-0.7760617110329107 pbc="F F F"
Ca       0.00000000       0.00000000       0.00000000       0.00000000       0.00000000      -1.09939611
Ca       0.00000000       0.00000000       3.23696970       0.00000000       0.00000000       1.09939611
2
Properties=species:S:1:pos:R:3:forces:R:3 energy=-0.8351246391375888 pbc="F F F"
Ca       0.00000000       0.00000000       0.00000000       0.00000000       0.00000000      -0.90936512
Ca       0.00000000       0.00000000       3.29575758       0.00000000       0.00000000       0.90936512
2
Properties=species:S:1:pos:R:3:forces:R:3 energy=-0.8829464407968574 pbc="F F F"
Ca       0.00000000       0.00000000       0.00000000       0.00000000       0.00000000      -0.71758831
Ca       0.00000000       0.00000000       3.35454545       0.00000000       0.00000000       0.71758831
2
Properties=species:S:1:pos:R:3:forces:R:3 energy=-0.9195411063203628 pbc="F F F"
Ca       0.00000000       0.00000000       0.00000000       0.00000000       0.00000000      -0.52813154
Ca       0.00000000       0.00000000       3.41333333       0.00000000       0.00000000       0.52813154
2
Properties=species:S:1:pos:R:3:forces:R:3 energy=-0.9451728247257398 pbc="F F F"
Ca       0.00000000       0.00000000       0.00000000       0.00000000       0.00000000      -0.34536520
Ca       0.00000000       0.00000000       3.47212121       0.00000000       0.00000000       0.34536520
2
Properties=species:S:1:pos:R:3:forces:R:3 energy=-0.9603710010293646 pbc="F F F"
Ca       0.00000000       0.00000000       0.00000000       0.00000000       0.00000000      -0.17399266
Ca       0.00000000       0.00000000       3.53090909       0.00000000       0.00000000       0.17399266
2
Properties=species:S:1:pos:R:3:forces:R:3 energy=-0.9659521047448842 pbc="F F F"
Ca       0.00000000       0.00000000       0.00000000       0.00000000       0.00000000      -0.01905426
Ca       0.00000000       0.00000000       3.58969697       0.00000000       0.00000000       0.01905426
2
Properties=species:S:1:pos:R:3:forces:R:3 energy=-0.963032143390031 pbc="F F F"
Ca       0.00000000       0.00000000       0.00000000       0.00000000       0.00000000       0.11442797
Ca       0.00000000       0.00000000       3.64848485       0.00000000       0.00000000      -0.11442797
2
Properties=species:S:1:pos:R:3:forces:R:3 energy=-0.9530028285500137 pbc="F F F"
Ca       0.00000000       0.00000000       0.00000000       0.00000000       0.00000000       0.22221676
Ca       0.00000000       0.00000000       3.70727273       0.00000000       0.00000000      -0.22221676
2
Properties=species:S:1:pos:R:3:forces:R:3 energy=-0.937461098967259 pbc="F F F"
Ca       0.00000000       0.00000000       0.00000000       0.00000000       0.00000000       0.30168051
Ca       0.00000000       0.00000000       3.76606061       0.00000000       0.00000000      -0.30168051
2
Properties=species:S:1:pos:R:3:forces:R:3 energy=-0.9180994347823419 pbc="F F F"
Ca       0.00000000       0.00000000       0.00000000       0.00000000       0.00000000       0.35230061
Ca       0.00000000       0.00000000       3.82484848       0.00000000       0.00000000      -0.35230061
2
Properties=species:S:1:pos:R:3:forces:R:3 energy=-0.8965705533591787 pbc="F F F"
Ca       0.00000000       0.00000000       0.00000000       0.00000000       0.00000000       0.37589714
Ca       0.00000000       0.00000000       3.88363636       0.00000000       0.00000000      -0.37589714
2
Properties=species:S:1:pos:R:3:forces:R:3 energy=-0.8743470081590682 pbc="F F F"
Ca       0.00000000       0.00000000       0.00000000       0.00000000       0.00000000       0.37692848
Ca       0.00000000       0.00000000       3.94242424       0.00000000       0.00000000      -0.37692848
2
Properties=species:S:1:pos:R:3:forces:R:3 energy=-0.8525475588825876 pbc="F F F"
Ca       0.00000000       0.00000000       0.00000000       0.00000000       0.00000000       0.36304209
Ca       0.00000000       0.00000000       4.00121212       0.00000000       0.00000000      -0.36304209
2
Properties=species:S:1:pos:R:3:forces:R:3 energy=-0.8317496847021746 pbc="F F F"
Ca       0.00000000       0.00000000       0.00000000       0.00000000       0.00000000       0.34467641
Ca       0.00000000       0.00000000       4.06000000       0.00000000       0.00000000      -0.34467641
2
Properties=species:S:1:pos:R:3:forces:R:3 energy=-0.8119114710920073 pbc="F F F"
Ca       0.00000000       0.00000000       0.00000000       0.00000000       0.00000000       0.33175308
Ca       0.00000000       0.00000000       4.11878788       0.00000000       0.00000000      -0.33175308
2
Properties=species:S:1:pos:R:3:forces:R:3 energy=-0.7925433068712107 pbc="F F F"
Ca       0.00000000       0.00000000       0.00000000       0.00000000       0.00000000       0.32881340
Ca       0.00000000       0.00000000       4.17757576       0.00000000       0.00000000      -0.32881340
2
Properties=species:S:1:pos:R:3:forces:R:3 energy=-0.7730894938267152 pbc="F F F"
Ca       0.00000000       0.00000000       0.00000000       0.00000000       0.00000000       0.33401486
Ca       0.00000000       0.00000000       4.23636364       0.00000000       0.00000000      -0.33401486
2
Properties=species:S:1:pos:R:3:forces:R:3 energy=-0.7531964515527134 pbc="F F F"
Ca       0.00000000       0.00000000       0.00000000       0.00000000       0.00000000       0.34307075
Ca       0.00000000       0.00000000       4.29515152       0.00000000       0.00000000      -0.34307075
2
Properties=species:S:1:pos:R:3:forces:R:3 energy=-0.7327360841154198 pbc="F F F"
Ca       0.00000000       0.00000000       0.00000000       0.00000000       0.00000000       0.35305935
Ca       0.00000000       0.00000000       4.35393939       0.00000000       0.00000000      -0.35305935
2
Properties=species:S:1:pos:R:3:forces:R:3 energy=-0.711684122958805 pbc="F F F"
Ca       0.00000000       0.00000000       0.00000000       0.00000000       0.00000000       0.36316258
Ca       0.00000000       0.00000000       4.41272727       0.00000000       0.00000000      -0.36316258
2
Properties=species:S:1:pos:R:3:forces:R:3 energy=-0.6900280785793593 pbc="F F F"
Ca       0.00000000       0.00000000       0.00000000       0.00000000       0.00000000       0.37370855
Ca       0.00000000       0.00000000       4.47151515       0.00000000       0.00000000      -0.37370855
2
Properties=species:S:1:pos:R:3:forces:R:3 energy=-0.6677259070761582 pbc="F F F"
Ca       0.00000000       0.00000000       0.00000000       0.00000000       0.00000000       0.38521180
Ca       0.00000000       0.00000000       4.53030303       0.00000000       0.00000000      -0.38521180
2
Properties=species:S:1:pos:R:3:forces:R:3 energy=-0.644713734906178 pbc="F F F"
Ca       0.00000000       0.00000000       0.00000000       0.00000000       0.00000000       0.39787665
Ca       0.00000000       0.00000000       4.58909091       0.00000000       0.00000000      -0.39787665
2
Properties=species:S:1:pos:R:3:forces:R:3 energy=-0.6209273552032599 pbc="F F F"
Ca       0.00000000       0.00000000       0.00000000       0.00000000       0.00000000       0.41146576
Ca       0.00000000       0.00000000       4.64787879       0.00000000       0.00000000      -0.41146576
2
Properties=species:S:1:pos:R:3:forces:R:3 energy=-0.5963299981563995 pbc="F F F"
Ca       0.00000000       0.00000000       0.00000000       0.00000000       0.00000000       0.42529494
Ca       0.00000000       0.00000000       4.70666667       0.00000000       0.00000000      -0.42529494
2
Properties=species:S:1:pos:R:3:forces:R:3 energy=-0.5709381438501329 pbc="F F F"
Ca       0.00000000       0.00000000       0.00000000       0.00000000       0.00000000       0.43834808
Ca       0.00000000       0.00000000       4.76545455       0.00000000       0.00000000      -0.43834808
2
Properties=species:S:1:pos:R:3:forces:R:3 energy=-0.5448290359145459 pbc="F F F"
Ca       0.00000000       0.00000000       0.00000000       0.00000000       0.00000000       0.44940913
Ca       0.00000000       0.00000000       4.82424242       0.00000000       0.00000000      -0.44940913
2
Properties=species:S:1:pos:R:3:forces:R:3 energy=-0.5181639121142698 pbc="F F F"
Ca       0.00000000       0.00000000       0.00000000       0.00000000       0.00000000       0.45719385
Ca       0.00000000       0.00000000       4.88303030       0.00000000       0.00000000      -0.45719385
2
Properties=species:S:1:pos:R:3:forces:R:3 energy=-0.49116291794104927 pbc="F F F"
Ca       0.00000000       0.00000000       0.00000000       0.00000000       0.00000000       0.46049863
Ca       0.00000000       0.00000000       4.94181818       0.00000000       0.00000000      -0.46049863
2
Properties=species:S:1:pos:R:3:forces:R:3 energy=-0.46412708586077667 pbc="F F F"
Ca       0.00000000       0.00000000       0.00000000       0.00000000       0.00000000       0.45830721
Ca       0.00000000       0.00000000       5.00060606       0.00000000       0.00000000      -0.45830721
2
Properties=species:S:1:pos:R:3:forces:R:3 energy=-0.437397761397613 pbc="F F F"
Ca       0.00000000       0.00000000       0.00000000       0.00000000       0.00000000       0.44990644
Ca       0.00000000       0.00000000       5.05939394       0.00000000       0.00000000      -0.44990644
2
Properties=species:S:1:pos:R:3:forces:R:3 energy=-0.41135755043678107 pbc="F F F"
Ca       0.00000000       0.00000000       0.00000000       0.00000000       0.00000000       0.43496162
Ca       0.00000000       0.00000000       5.11818182       0.00000000       0.00000000      -0.43496162
2
Properties=species:S:1:pos:R:3:forces:R:3 energy=-0.38638468857719704 pbc="F F F"
Ca       0.00000000       0.00000000       0.00000000       0.00000000       0.00000000       0.41358700
Ca       0.00000000       0.00000000       5.17696970       0.00000000       0.00000000      -0.41358700
2
Properties=species:S:1:pos:R:3:forces:R:3 energy=-0.3628452685650875 pbc="F F F"
Ca       0.00000000       0.00000000       0.00000000       0.00000000       0.00000000       0.38636586
Ca       0.00000000       0.00000000       5.23575758       0.00000000       0.00000000      -0.38636586
2
Properties=species:S:1:pos:R:3:forces:R:3 energy=-0.3410528196732829 pbc="F F F"
Ca       0.00000000       0.00000000       0.00000000       0.00000000       0.00000000       0.35430983
Ca       0.00000000       0.00000000       5.29454545       0.00000000       0.00000000      -0.35430983
2
Properties=species:S:1:pos:R:3:forces:R:3 energy=-0.3212546141001178 pbc="F F F"
Ca       0.00000000       0.00000000       0.00000000       0.00000000       0.00000000       0.31876409
Ca       0.00000000       0.00000000       5.35333333       0.00000000       0.00000000      -0.31876409
2
Properties=species:S:1:pos:R:3:forces:R:3 energy=-0.3036128545543807 pbc="F F F"
Ca       0.00000000       0.00000000       0.00000000       0.00000000       0.00000000       0.28126666
Ca       0.00000000       0.00000000       5.41212121       0.00000000       0.00000000      -0.28126666
2
Properties=species:S:1:pos:R:3:forces:R:3 energy=-0.28819216067773606 pbc="F F F"
Ca       0.00000000       0.00000000       0.00000000       0.00000000       0.00000000       0.24337316
Ca       0.00000000       0.00000000       5.47090909       0.00000000       0.00000000      -0.24337316
2
Properties=species:S:1:pos:R:3:forces:R:3 energy=-0.27497661338928414 pbc="F F F"
Ca       0.00000000       0.00000000       0.00000000       0.00000000       0.00000000       0.20647876
Ca       0.00000000       0.00000000       5.52969697       0.00000000       0.00000000      -0.20647876
2
Properties=species:S:1:pos:R:3:forces:R:3 energy=-0.26387324667703044 pbc="F F F"
Ca       0.00000000       0.00000000       0.00000000       0.00000000       0.00000000       0.17171624
Ca       0.00000000       0.00000000       5.58848485       0.00000000       0.00000000      -0.17171624
2
Properties=species:S:1:pos:R:3:forces:R:3 energy=-0.25473210151700143 pbc="F F F"
Ca       0.00000000       0.00000000       0.00000000       0.00000000       0.00000000       0.13994923
Ca       0.00000000       0.00000000       5.64727273       0.00000000       0.00000000      -0.13994923
2
Properties=species:S:1:pos:R:3:forces:R:3 energy=-0.24735060727464075 pbc="F F F"
Ca       0.00000000       0.00000000       0.00000000       0.00000000       0.00000000       0.11174561
Ca       0.00000000       0.00000000       5.70606061       0.00000000       0.00000000      -0.11174561
2
Properties=species:S:1:pos:R:3:forces:R:3 energy=-0.24150774137793865 pbc="F F F"
Ca       0.00000000       0.00000000       0.00000000       0.00000000       0.00000000       0.08751771
Ca       0.00000000       0.00000000       5.76484848       0.00000000       0.00000000      -0.08751771
2
Properties=species:S:1:pos:R:3:forces:R:3 energy=-0.2369708639066988 pbc="F F F"
Ca       0.00000000       0.00000000       0.00000000       0.00000000       0.00000000       0.06761491
Ca       0.00000000       0.00000000       5.82363636       0.00000000       0.00000000      -0.06761491
2
Properties=species:S:1:pos:R:3:forces:R:3 energy=-0.23347153007010113 pbc="F F F"
Ca       0.00000000       0.00000000       0.00000000       0.00000000       0.00000000       0.05237801
Ca       0.00000000       0.00000000       5.88242424       0.00000000       0.00000000      -0.05237801
2
Properties=species:S:1:pos:R:3:forces:R:3 energy=-0.23071517454558363 pbc="F F F"
Ca       0.00000000       0.00000000       0.00000000       0.00000000       0.00000000       0.04219744
Ca       0.00000000       0.00000000       5.94121212       0.00000000       0.00000000      -0.04219744
2
Properties=species:S:1:pos:R:3:forces:R:3 energy=-0.2284001592686199 pbc="F F F"
Ca       0.00000000       0.00000000       0.00000000       0.00000000       0.00000000       0.03754949
Ca       0.00000000       0.00000000       6.00000000       0.00000000       0.00000000      -0.03754949
