2
Properties=species:S:1:pos:R:3:forces:R:3 energy=41716.61050335365 pbc="F F F"
Cd       0.00000000       0.00000000       0.00000000       0.00000000       0.00000000 -1000700.62500000
Cd       0.00000000       0.00000000       0.10000000       0.00000000       0.00000000 1000700.62500000
2
Properties=species:S:1:pos:R:3:forces:R:3 energy=12264.465972103648 pbc="F F F"
Cd       0.00000000       0.00000000       0.00000000       0.00000000       0.00000000 -218899.18750000
Cd       0.00000000       0.00000000       0.15959596       0.00000000       0.00000000  218899.18750000
2
Properties=species:S:1:pos:R:3:forces:R:3 energy=4701.788726009899 pbc="F F F"
Cd       0.00000000       0.00000000       0.00000000       0.00000000       0.00000000  -68740.54687500
Cd       0.00000000       0.00000000       0.21919192       0.00000000       0.00000000   68740.54687500
2
Properties=species:S:1:pos:R:3:forces:R:3 energy=2098.0682670286915 pbc="F F F"
Cd       0.00000000       0.00000000       0.00000000       0.00000000       0.00000000  -26393.86914062
Cd       0.00000000       0.00000000       0.27878788       0.00000000       0.00000000   26393.86914062
2
Properties=species:S:1:pos:R:3:forces:R:3 energy=1040.7142631256092 pbc="F F F"
Cd       0.00000000       0.00000000       0.00000000       0.00000000       0.00000000  -11431.11132812
Cd       0.00000000       0.00000000       0.33838384       0.00000000       0.00000000   11431.11132812
2
Properties=species:S:1:pos:R:3:forces:R:3 energy=565.853240182726 pbc="F F F"
Cd       0.00000000       0.00000000       0.00000000       0.00000000       0.00000000   -5350.90869141
Cd       0.00000000       0.00000000       0.39797980       0.00000000       0.00000000    5350.90869141
2
Properties=species:S:1:pos:R:3:forces:R:3 energy=337.9439079200067 pbc="F F F"
Cd       0.00000000       0.00000000       0.00000000       0.00000000       0.00000000   -2641.29101562
Cd       0.00000000       0.00000000       0.45757576       0.00000000       0.00000000    2641.29101562
2
Properties=species:S:1:pos:R:3:forces:R:3 energy=223.5874626328493 pbc="F F F"
Cd       0.00000000       0.00000000       0.00000000       0.00000000       0.00000000   -1347.53881836
Cd       0.00000000       0.00000000       0.51717172       0.00000000       0.00000000    1347.53881836
2
Properties=species:S:1:pos:R:3:forces:R:3 energy=164.9077599247454 pbc="F F F"
Cd       0.00000000       0.00000000       0.00000000       0.00000000       0.00000000    -692.33612061
Cd       0.00000000       0.00000000       0.57676768       0.00000000       0.00000000     692.33612061
2
Properties=species:S:1:pos:R:3:forces:R:3 energy=135.09181151761283 pbc="F F F"
Cd       0.00000000       0.00000000       0.00000000       0.00000000       0.00000000    -343.55505371
Cd       0.00000000       0.00000000       0.63636364       0.00000000       0.00000000     343.55505371
2
Properties=species:S:1:pos:R:3:forces:R:3 energy=120.83698223441962 pbc="F F F"
Cd       0.00000000       0.00000000       0.00000000       0.00000000       0.00000000    -154.49430847
Cd       0.00000000       0.00000000       0.69595960       0.00000000       0.00000000     154.49430847
2
Properties=species:S:1:pos:R:3:forces:R:3 energy=114.79631775797303 pbc="F F F"
Cd       0.00000000       0.00000000       0.00000000       0.00000000       0.00000000     -61.27585602
Cd       0.00000000       0.00000000       0.75555556       0.00000000       0.00000000      61.27585602
2
Properties=species:S:1:pos:R:3:forces:R:3 energy=112.17884063242047 pbc="F F F"
Cd       0.00000000       0.00000000       0.00000000       0.00000000       0.00000000     -36.55476761
Cd       0.00000000       0.00000000       0.81515152       0.00000000       0.00000000      36.55476761
2
Properties=species:S:1:pos:R:3:forces:R:3 energy=109.41195720047534 pbc="F F F"
Cd       0.00000000       0.00000000       0.00000000       0.00000000       0.00000000     -63.33446884
Cd       0.00000000       0.00000000       0.87474747       0.00000000       0.00000000      63.33446884
2
Properties=species:S:1:pos:R:3:forces:R:3 energy=104.03076272766653 pbc="F F F"
Cd       0.00000000       0.00000000       0.00000000       0.00000000       0.00000000    -120.05949402
Cd       0.00000000       0.00000000       0.93434343       0.00000000       0.00000000     120.05949402
2
Properties=species:S:1:pos:R:3:forces:R:3 energy=95.0325946059878 pbc="F F F"
Cd       0.00000000       0.00000000       0.00000000       0.00000000       0.00000000    -180.50724792
Cd       0.00000000       0.00000000       0.99393939       0.00000000       0.00000000     180.50724792
2
Properties=species:S:1:pos:R:3:forces:R:3 energy=82.85052022374073 pbc="F F F"
Cd       0.00000000       0.00000000       0.00000000       0.00000000       0.00000000    -224.49703979
Cd       0.00000000       0.00000000       1.05353535       0.00000000       0.00000000     224.49703979
2
Properties=species:S:1:pos:R:3:forces:R:3 energy=68.81590715279668 pbc="F F F"
Cd       0.00000000       0.00000000       0.00000000       0.00000000       0.00000000    -241.25163269
Cd       0.00000000       0.00000000       1.11313131       0.00000000       0.00000000     241.25163269
2
Properties=species:S:1:pos:R:3:forces:R:3 energy=54.7468783614633 pbc="F F F"
Cd       0.00000000       0.00000000       0.00000000       0.00000000       0.00000000    -226.09556580
Cd       0.00000000       0.00000000       1.17272727       0.00000000       0.00000000     226.09556580
2
Properties=species:S:1:pos:R:3:forces:R:3 energy=42.205197720874295 pbc="F F F"
Cd       0.00000000       0.00000000       0.00000000       0.00000000       0.00000000    -193.97856140
Cd       0.00000000       0.00000000       1.23232323       0.00000000       0.00000000     193.97856140
2
Properties=species:S:1:pos:R:3:forces:R:3 energy=31.613831380167433 pbc="F F F"
Cd       0.00000000       0.00000000       0.00000000       0.00000000       0.00000000    -161.56933594
Cd       0.00000000       0.00000000       1.29191919       0.00000000       0.00000000     161.56933594
2
Properties=species:S:1:pos:R:3:forces:R:3 energy=23.02341387555346 pbc="F F F"
Cd       0.00000000       0.00000000       0.00000000       0.00000000       0.00000000    -125.52076721
Cd       0.00000000       0.00000000       1.35151515       0.00000000       0.00000000     125.52076721
2
Properties=species:S:1:pos:R:3:forces:R:3 energy=16.715048531256976 pbc="F F F"
Cd       0.00000000       0.00000000       0.00000000       0.00000000       0.00000000     -87.05406952
Cd       0.00000000       0.00000000       1.41111111       0.00000000       0.00000000      87.05406952
2
Properties=species:S:1:pos:R:3:forces:R:3 energy=12.417787162159174 pbc="F F F"
Cd       0.00000000       0.00000000       0.00000000       0.00000000       0.00000000     -59.38253784
Cd       0.00000000       0.00000000       1.47070707       0.00000000       0.00000000      59.38253784
2
Properties=species:S:1:pos:R:3:forces:R:3 energy=9.418007918981676 pbc="F F F"
Cd       0.00000000       0.00000000       0.00000000       0.00000000       0.00000000     -42.64022827
Cd       0.00000000       0.00000000       1.53030303       0.00000000       0.00000000      42.64022827
2
Properties=species:S:1:pos:R:3:forces:R:3 energy=7.224975079138047 pbc="F F F"
Cd       0.00000000       0.00000000       0.00000000       0.00000000       0.00000000     -31.57067108
Cd       0.00000000       0.00000000       1.58989899       0.00000000       0.00000000      31.57067108
2
Properties=species:S:1:pos:R:3:forces:R:3 energy=5.598502751299122 pbc="F F F"
Cd       0.00000000       0.00000000       0.00000000       0.00000000       0.00000000     -23.42023277
Cd       0.00000000       0.00000000       1.64949495       0.00000000       0.00000000      23.42023277
2
Properties=species:S:1:pos:R:3:forces:R:3 energy=4.388367065590085 pbc="F F F"
Cd       0.00000000       0.00000000       0.00000000       0.00000000       0.00000000     -17.53835487
Cd       0.00000000       0.00000000       1.70909091       0.00000000       0.00000000      17.53835487
2
Properties=species:S:1:pos:R:3:forces:R:3 energy=3.4716003098188284 pbc="F F F"
Cd       0.00000000       0.00000000       0.00000000       0.00000000       0.00000000     -13.48842049
Cd       0.00000000       0.00000000       1.76868687       0.00000000       0.00000000      13.48842049
2
Properties=species:S:1:pos:R:3:forces:R:3 energy=2.754897702507459 pbc="F F F"
Cd       0.00000000       0.00000000       0.00000000       0.00000000       0.00000000     -10.73845482
Cd       0.00000000       0.00000000       1.82828283       0.00000000       0.00000000      10.73845482
2
Properties=species:S:1:pos:R:3:forces:R:3 energy=2.1749253971863576 pbc="F F F"
Cd       0.00000000       0.00000000       0.00000000       0.00000000       0.00000000      -8.83587933
Cd       0.00000000       0.00000000       1.88787879       0.00000000       0.00000000       8.83587933
2
Properties=species:S:1:pos:R:3:forces:R:3 energy=1.6913540285611035 pbc="F F F"
Cd       0.00000000       0.00000000       0.00000000       0.00000000       0.00000000      -7.45874405
Cd       0.00000000       0.00000000       1.94747475       0.00000000       0.00000000       7.45874405
2
Properties=species:S:1:pos:R:3:forces:R:3 energy=1.2800349732057898 pbc="F F F"
Cd       0.00000000       0.00000000       0.00000000       0.00000000       0.00000000      -6.37923670
Cd       0.00000000       0.00000000       2.00707071       0.00000000       0.00000000       6.37923670
2
Properties=species:S:1:pos:R:3:forces:R:3 energy=0.9282588262456389 pbc="F F F"
Cd       0.00000000       0.00000000       0.00000000       0.00000000       0.00000000      -5.44045401
Cd       0.00000000       0.00000000       2.06666667       0.00000000       0.00000000       5.44045401
2
Properties=species:S:1:pos:R:3:forces:R:3 energy=0.6304062104826834 pbc="F F F"
Cd       0.00000000       0.00000000       0.00000000       0.00000000       0.00000000      -4.56296825
Cd       0.00000000       0.00000000       2.12626263       0.00000000       0.00000000       4.56296825
2
Properties=species:S:1:pos:R:3:forces:R:3 energy=0.38338748383260796 pbc="F F F"
Cd       0.00000000       0.00000000       0.00000000       0.00000000       0.00000000      -3.73707390
Cd       0.00000000       0.00000000       2.18585859       0.00000000       0.00000000       3.73707390
2
Properties=species:S:1:pos:R:3:forces:R:3 energy=0.18345738982417625 pbc="F F F"
Cd       0.00000000       0.00000000       0.00000000       0.00000000       0.00000000      -2.98761559
Cd       0.00000000       0.00000000       2.24545455       0.00000000       0.00000000       2.98761559
2
Properties=species:S:1:pos:R:3:forces:R:3 energy=0.025256511948855906 pbc="F F F"
Cd       0.00000000       0.00000000       0.00000000       0.00000000       0.00000000      -2.33986473
Cd       0.00000000       0.00000000       2.30505051       0.00000000       0.00000000       2.33986473
2
Properties=species:S:1:pos:R:3:forces:R:3 energy=-0.09767702860357051 pbc="F F F"
Cd       0.00000000       0.00000000       0.00000000       0.00000000       0.00000000      -1.80444586
Cd       0.00000000       0.00000000       2.36464646       0.00000000       0.00000000       1.80444586
2
Properties=species:S:1:pos:R:3:forces:R:3 energy=-0.1919723616436578 pbc="F F F"
Cd       0.00000000       0.00000000       0.00000000       0.00000000       0.00000000      -1.37706757
Cd       0.00000000       0.00000000       2.42424242       0.00000000       0.00000000       1.37706757
2
Properties=species:S:1:pos:R:3:forces:R:3 energy=-0.2636880456377886 pbc="F F F"
Cd       0.00000000       0.00000000       0.00000000       0.00000000       0.00000000      -1.04402113
Cd       0.00000000       0.00000000       2.48383838       0.00000000       0.00000000       1.04402113
2
Properties=species:S:1:pos:R:3:forces:R:3 energy=-0.31794825015656536 pbc="F F F"
Cd       0.00000000       0.00000000       0.00000000       0.00000000       0.00000000      -0.78842825
Cd       0.00000000       0.00000000       2.54343434       0.00000000       0.00000000       0.78842825
2
Properties=species:S:1:pos:R:3:forces:R:3 energy=-0.358893162471243 pbc="F F F"
Cd       0.00000000       0.00000000       0.00000000       0.00000000       0.00000000      -0.59491241
Cd       0.00000000       0.00000000       2.60303030       0.00000000       0.00000000       0.59491241
2
Properties=species:S:1:pos:R:3:forces:R:3 energy=-0.38985078765751735 pbc="F F F"
Cd       0.00000000       0.00000000       0.00000000       0.00000000       0.00000000      -0.45154414
Cd       0.00000000       0.00000000       2.66262626       0.00000000       0.00000000       0.45154414
2
Properties=species:S:1:pos:R:3:forces:R:3 energy=-0.41352856714248576 pbc="F F F"
Cd       0.00000000       0.00000000       0.00000000       0.00000000       0.00000000      -0.34921166
Cd       0.00000000       0.00000000       2.72222222       0.00000000       0.00000000       0.34921166
2
Properties=species:S:1:pos:R:3:forces:R:3 energy=-0.4321198423154623 pbc="F F F"
Cd       0.00000000       0.00000000       0.00000000       0.00000000       0.00000000      -0.27930155
Cd       0.00000000       0.00000000       2.78181818       0.00000000       0.00000000       0.27930155
2
Properties=species:S:1:pos:R:3:forces:R:3 energy=-0.4472541934508881 pbc="F F F"
Cd       0.00000000       0.00000000       0.00000000       0.00000000       0.00000000      -0.23118088
Cd       0.00000000       0.00000000       2.84141414       0.00000000       0.00000000       0.23118088
2
Properties=species:S:1:pos:R:3:forces:R:3 energy=-0.4598460074156417 pbc="F F F"
Cd       0.00000000       0.00000000       0.00000000       0.00000000       0.00000000      -0.19173822
Cd       0.00000000       0.00000000       2.90101010       0.00000000       0.00000000       0.19173822
2
Properties=species:S:1:pos:R:3:forces:R:3 energy=-0.47005653353764937 pbc="F F F"
Cd       0.00000000       0.00000000       0.00000000       0.00000000       0.00000000      -0.15006882
Cd       0.00000000       0.00000000       2.96060606       0.00000000       0.00000000       0.15006882
2
Properties=species:S:1:pos:R:3:forces:R:3 energy=-0.47764540597477173 pbc="F F F"
Cd       0.00000000       0.00000000       0.00000000       0.00000000       0.00000000      -0.10424417
Cd       0.00000000       0.00000000       3.02020202       0.00000000       0.00000000       0.10424417
2
Properties=species:S:1:pos:R:3:forces:R:3 energy=-0.4824936403808734 pbc="F F F"
Cd       0.00000000       0.00000000       0.00000000       0.00000000       0.00000000      -0.05891227
Cd       0.00000000       0.00000000       3.07979798       0.00000000       0.00000000       0.05891227
2
Properties=species:S:1:pos:R:3:forces:R:3 energy=-0.48473547477010204 pbc="F F F"
Cd       0.00000000       0.00000000       0.00000000       0.00000000       0.00000000      -0.01689618
Cd       0.00000000       0.00000000       3.13939394       0.00000000       0.00000000       0.01689618
2
Properties=species:S:1:pos:R:3:forces:R:3 energy=-0.48456585944350433 pbc="F F F"
Cd       0.00000000       0.00000000       0.00000000       0.00000000       0.00000000       0.02217414
Cd       0.00000000       0.00000000       3.19898990       0.00000000       0.00000000      -0.02217414
2
Properties=species:S:1:pos:R:3:forces:R:3 energy=-0.4821383146575518 pbc="F F F"
Cd       0.00000000       0.00000000       0.00000000       0.00000000       0.00000000       0.05890580
Cd       0.00000000       0.00000000       3.25858586       0.00000000       0.00000000      -0.05890580
2
Properties=species:S:1:pos:R:3:forces:R:3 energy=-0.4775955469823081 pbc="F F F"
Cd       0.00000000       0.00000000       0.00000000       0.00000000       0.00000000       0.09307677
Cd       0.00000000       0.00000000       3.31818182       0.00000000       0.00000000      -0.09307677
2
Properties=species:S:1:pos:R:3:forces:R:3 energy=-0.47110705728809127 pbc="F F F"
Cd       0.00000000       0.00000000       0.00000000       0.00000000       0.00000000       0.12409274
Cd       0.00000000       0.00000000       3.37777778       0.00000000       0.00000000      -0.12409274
2
Properties=species:S:1:pos:R:3:forces:R:3 energy=-0.46287898441209085 pbc="F F F"
Cd       0.00000000       0.00000000       0.00000000       0.00000000       0.00000000       0.15135843
Cd       0.00000000       0.00000000       3.43737374       0.00000000       0.00000000      -0.15135843
2
Properties=species:S:1:pos:R:3:forces:R:3 energy=-0.45315326378363435 pbc="F F F"
Cd       0.00000000       0.00000000       0.00000000       0.00000000       0.00000000       0.17423236
Cd       0.00000000       0.00000000       3.49696970       0.00000000       0.00000000      -0.17423236
2
Properties=species:S:1:pos:R:3:forces:R:3 energy=-0.4422161753436259 pbc="F F F"
Cd       0.00000000       0.00000000       0.00000000       0.00000000       0.00000000       0.19184667
Cd       0.00000000       0.00000000       3.55656566       0.00000000       0.00000000      -0.19184667
2
Properties=species:S:1:pos:R:3:forces:R:3 energy=-0.430413281479896 pbc="F F F"
Cd       0.00000000       0.00000000       0.00000000       0.00000000       0.00000000       0.20309643
Cd       0.00000000       0.00000000       3.61616162       0.00000000       0.00000000      -0.20309643
2
Properties=species:S:1:pos:R:3:forces:R:3 energy=-0.41815713666126764 pbc="F F F"
Cd       0.00000000       0.00000000       0.00000000       0.00000000       0.00000000       0.20689613
Cd       0.00000000       0.00000000       3.67575758       0.00000000       0.00000000      -0.20689613
2
Properties=species:S:1:pos:R:3:forces:R:3 energy=-0.40591450399317996 pbc="F F F"
Cd       0.00000000       0.00000000       0.00000000       0.00000000       0.00000000       0.20258570
Cd       0.00000000       0.00000000       3.73535354       0.00000000       0.00000000      -0.20258570
2
Properties=species:S:1:pos:R:3:forces:R:3 energy=-0.39416974458656073 pbc="F F F"
Cd       0.00000000       0.00000000       0.00000000       0.00000000       0.00000000       0.19028047
Cd       0.00000000       0.00000000       3.79494949       0.00000000       0.00000000      -0.19028047
2
Properties=species:S:1:pos:R:3:forces:R:3 energy=-0.3833740476557421 pbc="F F F"
Cd       0.00000000       0.00000000       0.00000000       0.00000000       0.00000000       0.17097995
Cd       0.00000000       0.00000000       3.85454545       0.00000000       0.00000000      -0.17097995
2
Properties=species:S:1:pos:R:3:forces:R:3 energy=-0.37389519459830484 pbc="F F F"
Cd       0.00000000       0.00000000       0.00000000       0.00000000       0.00000000       0.14642316
Cd       0.00000000       0.00000000       3.91414141       0.00000000       0.00000000      -0.14642316
2
Properties=species:S:1:pos:R:3:forces:R:3 energy=-0.3659832172162206 pbc="F F F"
Cd       0.00000000       0.00000000       0.00000000       0.00000000       0.00000000       0.11876315
Cd       0.00000000       0.00000000       3.97373737       0.00000000       0.00000000      -0.11876315
2
Properties=species:S:1:pos:R:3:forces:R:3 energy=-0.3597569930064226 pbc="F F F"
Cd       0.00000000       0.00000000       0.00000000       0.00000000       0.00000000       0.09021839
Cd       0.00000000       0.00000000       4.03333333       0.00000000       0.00000000      -0.09021839
2
Properties=species:S:1:pos:R:3:forces:R:3 energy=-0.3552075768092389 pbc="F F F"
Cd       0.00000000       0.00000000       0.00000000       0.00000000       0.00000000       0.06278983
Cd       0.00000000       0.00000000       4.09292929       0.00000000       0.00000000      -0.06278983
2
Properties=species:S:1:pos:R:3:forces:R:3 energy=-0.3522182425162253 pbc="F F F"
Cd       0.00000000       0.00000000       0.00000000       0.00000000       0.00000000       0.03809883
Cd       0.00000000       0.00000000       4.15252525       0.00000000       0.00000000      -0.03809883
2
Properties=species:S:1:pos:R:3:forces:R:3 energy=-0.35058849565443695 pbc="F F F"
Cd       0.00000000       0.00000000       0.00000000       0.00000000       0.00000000       0.01731935
Cd       0.00000000       0.00000000       4.21212121       0.00000000       0.00000000      -0.01731935
2
Properties=species:S:1:pos:R:3:forces:R:3 energy=-0.3500616469942526 pbc="F F F"
Cd       0.00000000       0.00000000       0.00000000       0.00000000       0.00000000       0.00117102
Cd       0.00000000       0.00000000       4.27171717       0.00000000       0.00000000      -0.00117102
2
Properties=species:S:1:pos:R:3:forces:R:3 energy=-0.35035091563198767 pbc="F F F"
Cd       0.00000000       0.00000000       0.00000000       0.00000000       0.00000000      -0.01005651
Cd       0.00000000       0.00000000       4.33131313       0.00000000       0.00000000       0.01005651
2
Properties=species:S:1:pos:R:3:forces:R:3 energy=-0.3511644516853057 pbc="F F F"
Cd       0.00000000       0.00000000       0.00000000       0.00000000       0.00000000      -0.01647449
Cd       0.00000000       0.00000000       4.39090909       0.00000000       0.00000000       0.01647449
2
Properties=species:S:1:pos:R:3:forces:R:3 energy=-0.3522281732076815 pbc="F F F"
Cd       0.00000000       0.00000000       0.00000000       0.00000000       0.00000000      -0.01855345
Cd       0.00000000       0.00000000       4.45050505       0.00000000       0.00000000       0.01855345
2
Properties=species:S:1:pos:R:3:forces:R:3 energy=-0.3533049025711673 pbc="F F F"
Cd       0.00000000       0.00000000       0.00000000       0.00000000       0.00000000      -0.01706848
Cd       0.00000000       0.00000000       4.51010101       0.00000000       0.00000000       0.01706848
2
Properties=species:S:1:pos:R:3:forces:R:3 energy=-0.3542115967924489 pbc="F F F"
Cd       0.00000000       0.00000000       0.00000000       0.00000000       0.00000000      -0.01302099
Cd       0.00000000       0.00000000       4.56969697       0.00000000       0.00000000       0.01302099
2
Properties=species:S:1:pos:R:3:forces:R:3 energy=-0.35482827555827345 pbc="F F F"
Cd       0.00000000       0.00000000       0.00000000       0.00000000       0.00000000      -0.00752703
Cd       0.00000000       0.00000000       4.62929293       0.00000000       0.00000000       0.00752703
2
Properties=species:S:1:pos:R:3:forces:R:3 energy=-0.35510185634554203 pbc="F F F"
Cd       0.00000000       0.00000000       0.00000000       0.00000000       0.00000000      -0.00168383
Cd       0.00000000       0.00000000       4.68888889       0.00000000       0.00000000       0.00168383
2
Properties=species:S:1:pos:R:3:forces:R:3 energy=-0.35504076466070267 pbc="F F F"
Cd       0.00000000       0.00000000       0.00000000       0.00000000       0.00000000       0.00357248
Cd       0.00000000       0.00000000       4.74848485       0.00000000       0.00000000      -0.00357248
2
Properties=species:S:1:pos:R:3:forces:R:3 energy=-0.3547010215228875 pbc="F F F"
Cd       0.00000000       0.00000000       0.00000000       0.00000000       0.00000000       0.00758371
Cd       0.00000000       0.00000000       4.80808081       0.00000000       0.00000000      -0.00758371
2
Properties=species:S:1:pos:R:3:forces:R:3 energy=-0.3541680303691647 pbc="F F F"
Cd       0.00000000       0.00000000       0.00000000       0.00000000       0.00000000       0.01003783
Cd       0.00000000       0.00000000       4.86767677       0.00000000       0.00000000      -0.01003783
2
Properties=species:S:1:pos:R:3:forces:R:3 energy=-0.35353521583297787 pbc="F F F"
Cd       0.00000000       0.00000000       0.00000000       0.00000000       0.00000000       0.01096267
Cd       0.00000000       0.00000000       4.92727273       0.00000000       0.00000000      -0.01096267
2
Properties=species:S:1:pos:R:3:forces:R:3 energy=-0.3528859356103557 pbc="F F F"
Cd       0.00000000       0.00000000       0.00000000       0.00000000       0.00000000       0.01065582
Cd       0.00000000       0.00000000       4.98686869       0.00000000       0.00000000      -0.01065582
2
Properties=species:S:1:pos:R:3:forces:R:3 energy=-0.3522805829739386 pbc="F F F"
Cd       0.00000000       0.00000000       0.00000000       0.00000000       0.00000000       0.00956940
Cd       0.00000000       0.00000000       5.04646465       0.00000000       0.00000000      -0.00956940
2
Properties=species:S:1:pos:R:3:forces:R:3 energy=-0.35175112315252716 pbc="F F F"
Cd       0.00000000       0.00000000       0.00000000       0.00000000       0.00000000       0.00818661
Cd       0.00000000       0.00000000       5.10606061       0.00000000       0.00000000      -0.00818661
2
Properties=species:S:1:pos:R:3:forces:R:3 energy=-0.3513025392657084 pbc="F F F"
Cd       0.00000000       0.00000000       0.00000000       0.00000000       0.00000000       0.00691790
Cd       0.00000000       0.00000000       5.16565657       0.00000000       0.00000000      -0.00691790
2
Properties=species:S:1:pos:R:3:forces:R:3 energy=-0.3509188415975889 pbc="F F F"
Cd       0.00000000       0.00000000       0.00000000       0.00000000       0.00000000       0.00603642
Cd       0.00000000       0.00000000       5.22525253       0.00000000       0.00000000      -0.00603642
2
Properties=species:S:1:pos:R:3:forces:R:3 energy=-0.3505729324574928 pbc="F F F"
Cd       0.00000000       0.00000000       0.00000000       0.00000000       0.00000000       0.00565666
Cd       0.00000000       0.00000000       5.28484848       0.00000000       0.00000000      -0.00565666
2
Properties=species:S:1:pos:R:3:forces:R:3 energy=-0.3502351213086506 pbc="F F F"
Cd       0.00000000       0.00000000       0.00000000       0.00000000       0.00000000       0.00575194
Cd       0.00000000       0.00000000       5.34444444       0.00000000       0.00000000      -0.00575194
2
Properties=species:S:1:pos:R:3:forces:R:3 energy=-0.3498803480175942 pbc="F F F"
Cd       0.00000000       0.00000000       0.00000000       0.00000000       0.00000000       0.00619982
Cd       0.00000000       0.00000000       5.40404040       0.00000000       0.00000000      -0.00619982
2
Properties=species:S:1:pos:R:3:forces:R:3 energy=-0.3494925535841348 pbc="F F F"
Cd       0.00000000       0.00000000       0.00000000       0.00000000       0.00000000       0.00683528
Cd       0.00000000       0.00000000       5.46363636       0.00000000       0.00000000      -0.00683528
2
Properties=species:S:1:pos:R:3:forces:R:3 energy=-0.3490649768726632 pbc="F F F"
Cd       0.00000000       0.00000000       0.00000000       0.00000000       0.00000000       0.00750015
Cd       0.00000000       0.00000000       5.52323232       0.00000000       0.00000000      -0.00750015
2
Properties=species:S:1:pos:R:3:forces:R:3 energy=-0.34860020242147066 pbc="F F F"
Cd       0.00000000       0.00000000       0.00000000       0.00000000       0.00000000       0.00807734
Cd       0.00000000       0.00000000       5.58282828       0.00000000       0.00000000      -0.00807734
2
Properties=species:S:1:pos:R:3:forces:R:3 energy=-0.34810529157682174 pbc="F F F"
Cd       0.00000000       0.00000000       0.00000000       0.00000000       0.00000000       0.00850202
Cd       0.00000000       0.00000000       5.64242424       0.00000000       0.00000000      -0.00850202
2
Properties=species:S:1:pos:R:3:forces:R:3 energy=-0.3475903143436106 pbc="F F F"
Cd       0.00000000       0.00000000       0.00000000       0.00000000       0.00000000       0.00875637
Cd       0.00000000       0.00000000       5.70202020       0.00000000       0.00000000      -0.00875637
2
Properties=species:S:1:pos:R:3:forces:R:3 energy=-0.3470647285491848 pbc="F F F"
Cd       0.00000000       0.00000000       0.00000000       0.00000000       0.00000000       0.00885313
Cd       0.00000000       0.00000000       5.76161616       0.00000000       0.00000000      -0.00885313
2
Properties=species:S:1:pos:R:3:forces:R:3 energy=-0.34653771717235826 pbc="F F F"
Cd       0.00000000       0.00000000       0.00000000       0.00000000       0.00000000       0.00881489
Cd       0.00000000       0.00000000       5.82121212       0.00000000       0.00000000      -0.00881489
2
Properties=species:S:1:pos:R:3:forces:R:3 energy=-0.34601635989834384 pbc="F F F"
Cd       0.00000000       0.00000000       0.00000000       0.00000000       0.00000000       0.00865808
Cd       0.00000000       0.00000000       5.88080808       0.00000000       0.00000000      -0.00865808
2
Properties=species:S:1:pos:R:3:forces:R:3 energy=-0.3455080987919564 pbc="F F F"
Cd       0.00000000       0.00000000       0.00000000       0.00000000       0.00000000       0.00838246
Cd       0.00000000       0.00000000       5.94040404       0.00000000       0.00000000      -0.00838246
2
Properties=species:S:1:pos:R:3:forces:R:3 energy=-0.3450200312534185 pbc="F F F"
Cd       0.00000000       0.00000000       0.00000000       0.00000000       0.00000000       0.00797041
Cd       0.00000000       0.00000000       6.00000000       0.00000000       0.00000000      -0.00797041
