2
Properties=species:S:1:pos:R:3:forces:R:3 energy=11141.544811969909 pbc="F F F"
Ce       0.00000000       0.00000000       0.00000000       0.00000000       0.00000000 -190080.98437500
Ce       0.00000000       0.00000000       0.18000000       0.00000000       0.00000000  190080.98437500
2
Properties=species:S:1:pos:R:3:forces:R:3 energy=4432.080944782409 pbc="F F F"
Ce       0.00000000       0.00000000       0.00000000       0.00000000       0.00000000  -64409.43359375
Ce       0.00000000       0.00000000       0.23878788       0.00000000       0.00000000   64409.43359375
2
Properties=species:S:1:pos:R:3:forces:R:3 energy=1980.331188923034 pbc="F F F"
Ce       0.00000000       0.00000000       0.00000000       0.00000000       0.00000000  -25707.90429688
Ce       0.00000000       0.00000000       0.29757576       0.00000000       0.00000000   25707.90429688
2
Properties=species:S:1:pos:R:3:forces:R:3 energy=954.6898315011589 pbc="F F F"
Ce       0.00000000       0.00000000       0.00000000       0.00000000       0.00000000  -11356.16406250
Ce       0.00000000       0.00000000       0.35636364       0.00000000       0.00000000   11356.16406250
2
Properties=species:S:1:pos:R:3:forces:R:3 energy=486.61170650115895 pbc="F F F"
Ce       0.00000000       0.00000000       0.00000000       0.00000000       0.00000000   -5385.26025391
Ce       0.00000000       0.00000000       0.41515152       0.00000000       0.00000000    5385.26025391
2
Properties=species:S:1:pos:R:3:forces:R:3 energy=258.8999755457116 pbc="F F F"
Ce       0.00000000       0.00000000       0.00000000       0.00000000       0.00000000   -2700.86181641
Ce       0.00000000       0.00000000       0.47393939       0.00000000       0.00000000    2700.86181641
2
Properties=species:S:1:pos:R:3:forces:R:3 energy=142.17689205436957 pbc="F F F"
Ce       0.00000000       0.00000000       0.00000000       0.00000000       0.00000000   -1420.96252441
Ce       0.00000000       0.00000000       0.53272727       0.00000000       0.00000000    1420.96252441
2
Properties=species:S:1:pos:R:3:forces:R:3 energy=79.5679824506038 pbc="F F F"
Ce       0.00000000       0.00000000       0.00000000       0.00000000       0.00000000    -779.77166748
Ce       0.00000000       0.00000000       0.59151515       0.00000000       0.00000000     779.77166748
2
Properties=species:S:1:pos:R:3:forces:R:3 energy=44.618847630279284 pbc="F F F"
Ce       0.00000000       0.00000000       0.00000000       0.00000000       0.00000000    -443.93969727
Ce       0.00000000       0.00000000       0.65030303       0.00000000       0.00000000     443.93969727
2
Properties=species:S:1:pos:R:3:forces:R:3 energy=24.430208957400694 pbc="F F F"
Ce       0.00000000       0.00000000       0.00000000       0.00000000       0.00000000    -260.65530396
Ce       0.00000000       0.00000000       0.70909091       0.00000000       0.00000000     260.65530396
2
Properties=species:S:1:pos:R:3:forces:R:3 energy=12.438918882355454 pbc="F F F"
Ce       0.00000000       0.00000000       0.00000000       0.00000000       0.00000000    -156.75108337
Ce       0.00000000       0.00000000       0.76787879       0.00000000       0.00000000     156.75108337
2
Properties=species:S:1:pos:R:3:forces:R:3 energy=5.169096787031527 pbc="F F F"
Ce       0.00000000       0.00000000       0.00000000       0.00000000       0.00000000     -95.80367279
Ce       0.00000000       0.00000000       0.82666667       0.00000000       0.00000000      95.80367279
2
Properties=species:S:1:pos:R:3:forces:R:3 energy=0.7065480954556461 pbc="F F F"
Ce       0.00000000       0.00000000       0.00000000       0.00000000       0.00000000     -59.02389526
Ce       0.00000000       0.00000000       0.88545455       0.00000000       0.00000000      59.02389526
2
Properties=species:S:1:pos:R:3:forces:R:3 energy=-2.0451048098681106 pbc="F F F"
Ce       0.00000000       0.00000000       0.00000000       0.00000000       0.00000000     -36.38951874
Ce       0.00000000       0.00000000       0.94424242       0.00000000       0.00000000      36.38951874
2
Properties=species:S:1:pos:R:3:forces:R:3 energy=-3.7388822981959455 pbc="F F F"
Ce       0.00000000       0.00000000       0.00000000       0.00000000       0.00000000     -22.34502220
Ce       0.00000000       0.00000000       1.00303030       0.00000000       0.00000000      22.34502220
2
Properties=species:S:1:pos:R:3:forces:R:3 energy=-4.775644674376955 pbc="F F F"
Ce       0.00000000       0.00000000       0.00000000       0.00000000       0.00000000     -13.60747051
Ce       0.00000000       0.00000000       1.06181818       0.00000000       0.00000000      13.60747051
2
Properties=species:S:1:pos:R:3:forces:R:3 energy=-5.399820093049714 pbc="F F F"
Ce       0.00000000       0.00000000       0.00000000       0.00000000       0.00000000      -7.99961805
Ce       0.00000000       0.00000000       1.12060606       0.00000000       0.00000000       7.99961805
2
Properties=species:S:1:pos:R:3:forces:R:3 energy=-5.745226454274915 pbc="F F F"
Ce       0.00000000       0.00000000       0.00000000       0.00000000       0.00000000      -3.89347267
Ce       0.00000000       0.00000000       1.17939394       0.00000000       0.00000000       3.89347267
2
Properties=species:S:1:pos:R:3:forces:R:3 energy=-5.8700459864976535 pbc="F F F"
Ce       0.00000000       0.00000000       0.00000000       0.00000000       0.00000000      -0.50359607
Ce       0.00000000       0.00000000       1.23818182       0.00000000       0.00000000       0.50359607
2
Properties=species:S:1:pos:R:3:forces:R:3 energy=-5.844479125066194 pbc="F F F"
Ce       0.00000000       0.00000000       0.00000000       0.00000000       0.00000000       0.79486018
Ce       0.00000000       0.00000000       1.29696970       0.00000000       0.00000000      -0.79486018
2
Properties=species:S:1:pos:R:3:forces:R:3 energy=-5.851164499313546 pbc="F F F"
Ce       0.00000000       0.00000000       0.00000000       0.00000000       0.00000000      -1.40302956
Ce       0.00000000       0.00000000       1.35575758       0.00000000       0.00000000       1.40302956
2
Properties=species:S:1:pos:R:3:forces:R:3 energy=-5.979946798658826 pbc="F F F"
Ce       0.00000000       0.00000000       0.00000000       0.00000000       0.00000000      -2.20146513
Ce       0.00000000       0.00000000       1.41454545       0.00000000       0.00000000       2.20146513
2
Properties=species:S:1:pos:R:3:forces:R:3 energy=-6.033283815127255 pbc="F F F"
Ce       0.00000000       0.00000000       0.00000000       0.00000000       0.00000000       0.57982326
Ce       0.00000000       0.00000000       1.47333333       0.00000000       0.00000000      -0.57982326
2
Properties=species:S:1:pos:R:3:forces:R:3 energy=-5.931065453454479 pbc="F F F"
Ce       0.00000000       0.00000000       0.00000000       0.00000000       0.00000000       2.64523983
Ce       0.00000000       0.00000000       1.53212121       0.00000000       0.00000000      -2.64523983
2
Properties=species:S:1:pos:R:3:forces:R:3 energy=-5.735161789579753 pbc="F F F"
Ce       0.00000000       0.00000000       0.00000000       0.00000000       0.00000000       4.05303574
Ce       0.00000000       0.00000000       1.59090909       0.00000000       0.00000000      -4.05303574
2
Properties=species:S:1:pos:R:3:forces:R:3 energy=-5.444995820447345 pbc="F F F"
Ce       0.00000000       0.00000000       0.00000000       0.00000000       0.00000000       5.88259840
Ce       0.00000000       0.00000000       1.64969697       0.00000000       0.00000000      -5.88259840
2
Properties=species:S:1:pos:R:3:forces:R:3 energy=-5.043916363982401 pbc="F F F"
Ce       0.00000000       0.00000000       0.00000000       0.00000000       0.00000000       7.68615437
Ce       0.00000000       0.00000000       1.70848485       0.00000000       0.00000000      -7.68615437
2
Properties=species:S:1:pos:R:3:forces:R:3 energy=-4.55690488564105 pbc="F F F"
Ce       0.00000000       0.00000000       0.00000000       0.00000000       0.00000000       8.71076298
Ce       0.00000000       0.00000000       1.76727273       0.00000000       0.00000000      -8.71076298
2
Properties=species:S:1:pos:R:3:forces:R:3 energy=-4.04138016589988 pbc="F F F"
Ce       0.00000000       0.00000000       0.00000000       0.00000000       0.00000000       8.64491844
Ce       0.00000000       0.00000000       1.82606061       0.00000000       0.00000000      -8.64491844
2
Properties=species:S:1:pos:R:3:forces:R:3 energy=-3.5603569092894833 pbc="F F F"
Ce       0.00000000       0.00000000       0.00000000       0.00000000       0.00000000       7.56781864
Ce       0.00000000       0.00000000       1.88484848       0.00000000       0.00000000      -7.56781864
2
Properties=species:S:1:pos:R:3:forces:R:3 energy=-3.1673237980928954 pbc="F F F"
Ce       0.00000000       0.00000000       0.00000000       0.00000000       0.00000000       5.68746281
Ce       0.00000000       0.00000000       1.94363636       0.00000000       0.00000000      -5.68746281
2
Properties=species:S:1:pos:R:3:forces:R:3 energy=-2.9027537564354593 pbc="F F F"
Ce       0.00000000       0.00000000       0.00000000       0.00000000       0.00000000       3.24732637
Ce       0.00000000       0.00000000       2.00242424       0.00000000       0.00000000      -3.24732637
2
Properties=species:S:1:pos:R:3:forces:R:3 energy=-2.7882402964216944 pbc="F F F"
Ce       0.00000000       0.00000000       0.00000000       0.00000000       0.00000000       0.67621750
Ce       0.00000000       0.00000000       2.06121212       0.00000000       0.00000000      -0.67621750
2
Properties=species:S:1:pos:R:3:forces:R:3 energy=-2.8140248775007963 pbc="F F F"
Ce       0.00000000       0.00000000       0.00000000       0.00000000       0.00000000      -1.43396914
Ce       0.00000000       0.00000000       2.12000000       0.00000000       0.00000000       1.43396914
2
Properties=species:S:1:pos:R:3:forces:R:3 energy=-2.9408110350189363 pbc="F F F"
Ce       0.00000000       0.00000000       0.00000000       0.00000000       0.00000000      -2.74262953
Ce       0.00000000       0.00000000       2.17878788       0.00000000       0.00000000       2.74262953
2
Properties=species:S:1:pos:R:3:forces:R:3 energy=-3.1223290282172544 pbc="F F F"
Ce       0.00000000       0.00000000       0.00000000       0.00000000       0.00000000      -3.33343983
Ce       0.00000000       0.00000000       2.23757576       0.00000000       0.00000000       3.33343983
2
Properties=species:S:1:pos:R:3:forces:R:3 energy=-3.323607052793044 pbc="F F F"
Ce       0.00000000       0.00000000       0.00000000       0.00000000       0.00000000      -3.45567203
Ce       0.00000000       0.00000000       2.29636364       0.00000000       0.00000000       3.45567203
2
Properties=species:S:1:pos:R:3:forces:R:3 energy=-3.5235025230345176 pbc="F F F"
Ce       0.00000000       0.00000000       0.00000000       0.00000000       0.00000000      -3.31353569
Ce       0.00000000       0.00000000       2.35515152       0.00000000       0.00000000       3.31353569
2
Properties=species:S:1:pos:R:3:forces:R:3 energy=-3.7105903065895305 pbc="F F F"
Ce       0.00000000       0.00000000       0.00000000       0.00000000       0.00000000      -3.03658772
Ce       0.00000000       0.00000000       2.41393939       0.00000000       0.00000000       3.03658772
2
Properties=species:S:1:pos:R:3:forces:R:3 energy=-3.8794286158475155 pbc="F F F"
Ce       0.00000000       0.00000000       0.00000000       0.00000000       0.00000000      -2.70212889
Ce       0.00000000       0.00000000       2.47272727       0.00000000       0.00000000       2.70212889
2
Properties=species:S:1:pos:R:3:forces:R:3 energy=-4.027979555748273 pbc="F F F"
Ce       0.00000000       0.00000000       0.00000000       0.00000000       0.00000000      -2.35073590
Ce       0.00000000       0.00000000       2.53151515       0.00000000       0.00000000       2.35073590
2
Properties=species:S:1:pos:R:3:forces:R:3 energy=-4.155785213732288 pbc="F F F"
Ce       0.00000000       0.00000000       0.00000000       0.00000000       0.00000000      -1.99724495
Ce       0.00000000       0.00000000       2.59030303       0.00000000       0.00000000       1.99724495
2
Properties=species:S:1:pos:R:3:forces:R:3 energy=-4.262785346758695 pbc="F F F"
Ce       0.00000000       0.00000000       0.00000000       0.00000000       0.00000000      -1.64255393
Ce       0.00000000       0.00000000       2.64909091       0.00000000       0.00000000       1.64255393
2
Properties=species:S:1:pos:R:3:forces:R:3 energy=-4.348857718204332 pbc="F F F"
Ce       0.00000000       0.00000000       0.00000000       0.00000000       0.00000000      -1.28544152
Ce       0.00000000       0.00000000       2.70787879       0.00000000       0.00000000       1.28544152
2
Properties=species:S:1:pos:R:3:forces:R:3 energy=-4.413964939949799 pbc="F F F"
Ce       0.00000000       0.00000000       0.00000000       0.00000000       0.00000000      -0.93091416
Ce       0.00000000       0.00000000       2.76666667       0.00000000       0.00000000       0.93091416
2
Properties=species:S:1:pos:R:3:forces:R:3 energy=-4.458617985023714 pbc="F F F"
Ce       0.00000000       0.00000000       0.00000000       0.00000000       0.00000000      -0.59230673
Ce       0.00000000       0.00000000       2.82545455       0.00000000       0.00000000       0.59230673
2
Properties=species:S:1:pos:R:3:forces:R:3 energy=-4.484264306123012 pbc="F F F"
Ce       0.00000000       0.00000000       0.00000000       0.00000000       0.00000000      -0.28716752
Ce       0.00000000       0.00000000       2.88424242       0.00000000       0.00000000       0.28716752
2
Properties=species:S:1:pos:R:3:forces:R:3 energy=-4.493333635738788 pbc="F F F"
Ce       0.00000000       0.00000000       0.00000000       0.00000000       0.00000000      -0.03021522
Ce       0.00000000       0.00000000       2.94303030       0.00000000       0.00000000       0.03021522
2
Properties=species:S:1:pos:R:3:forces:R:3 energy=-4.488899409599225 pbc="F F F"
Ce       0.00000000       0.00000000       0.00000000       0.00000000       0.00000000       0.17182377
Ce       0.00000000       0.00000000       3.00181818       0.00000000       0.00000000      -0.17182377
2
Properties=species:S:1:pos:R:3:forces:R:3 energy=-4.474169992509169 pbc="F F F"
Ce       0.00000000       0.00000000       0.00000000       0.00000000       0.00000000       0.32099193
Ce       0.00000000       0.00000000       3.06060606       0.00000000       0.00000000      -0.32099193
2
Properties=species:S:1:pos:R:3:forces:R:3 energy=-4.452048560820925 pbc="F F F"
Ce       0.00000000       0.00000000       0.00000000       0.00000000       0.00000000       0.42484024
Ce       0.00000000       0.00000000       3.11939394       0.00000000       0.00000000      -0.42484024
2
Properties=species:S:1:pos:R:3:forces:R:3 energy=-4.424931862898298 pbc="F F F"
Ce       0.00000000       0.00000000       0.00000000       0.00000000       0.00000000       0.49227333
Ce       0.00000000       0.00000000       3.17818182       0.00000000       0.00000000      -0.49227333
2
Properties=species:S:1:pos:R:3:forces:R:3 energy=-4.39472930527421 pbc="F F F"
Ce       0.00000000       0.00000000       0.00000000       0.00000000       0.00000000       0.53106880
Ce       0.00000000       0.00000000       3.23696970       0.00000000       0.00000000      -0.53106880
2
Properties=species:S:1:pos:R:3:forces:R:3 energy=-4.362916824162201 pbc="F F F"
Ce       0.00000000       0.00000000       0.00000000       0.00000000       0.00000000       0.54821885
Ce       0.00000000       0.00000000       3.29575758       0.00000000       0.00000000      -0.54821885
2
Properties=species:S:1:pos:R:3:forces:R:3 energy=-4.33054023598782 pbc="F F F"
Ce       0.00000000       0.00000000       0.00000000       0.00000000       0.00000000       0.55173641
Ce       0.00000000       0.00000000       3.35454545       0.00000000       0.00000000      -0.55173641
2
Properties=species:S:1:pos:R:3:forces:R:3 energy=-4.2981155625834555 pbc="F F F"
Ce       0.00000000       0.00000000       0.00000000       0.00000000       0.00000000       0.55172497
Ce       0.00000000       0.00000000       3.41333333       0.00000000       0.00000000      -0.55172497
2
Properties=species:S:1:pos:R:3:forces:R:3 energy=-4.265521284997511 pbc="F F F"
Ce       0.00000000       0.00000000       0.00000000       0.00000000       0.00000000       0.55928516
Ce       0.00000000       0.00000000       3.47212121       0.00000000       0.00000000      -0.55928516
2
Properties=species:S:1:pos:R:3:forces:R:3 energy=-4.232026454711984 pbc="F F F"
Ce       0.00000000       0.00000000       0.00000000       0.00000000       0.00000000       0.58353782
Ce       0.00000000       0.00000000       3.53090909       0.00000000       0.00000000      -0.58353782
2
Properties=species:S:1:pos:R:3:forces:R:3 energy=-4.196506246212732 pbc="F F F"
Ce       0.00000000       0.00000000       0.00000000       0.00000000       0.00000000       0.62817228
Ce       0.00000000       0.00000000       3.58969697       0.00000000       0.00000000      -0.62817228
2
Properties=species:S:1:pos:R:3:forces:R:3 energy=-4.157840580182439 pbc="F F F"
Ce       0.00000000       0.00000000       0.00000000       0.00000000       0.00000000       0.68927449
Ce       0.00000000       0.00000000       3.64848485       0.00000000       0.00000000      -0.68927449
2
Properties=species:S:1:pos:R:3:forces:R:3 energy=-4.1153556905482205 pbc="F F F"
Ce       0.00000000       0.00000000       0.00000000       0.00000000       0.00000000       0.75582427
Ce       0.00000000       0.00000000       3.70727273       0.00000000       0.00000000      -0.75582427
2
Properties=species:S:1:pos:R:3:forces:R:3 energy=-4.069153116778212 pbc="F F F"
Ce       0.00000000       0.00000000       0.00000000       0.00000000       0.00000000       0.81327611
Ce       0.00000000       0.00000000       3.76606061       0.00000000       0.00000000      -0.81327611
2
Properties=species:S:1:pos:R:3:forces:R:3 energy=-4.020165287088714 pbc="F F F"
Ce       0.00000000       0.00000000       0.00000000       0.00000000       0.00000000       0.84896529
Ce       0.00000000       0.00000000       3.82484848       0.00000000       0.00000000      -0.84896529
2
Properties=species:S:1:pos:R:3:forces:R:3 energy=-3.9698863375327513 pbc="F F F"
Ce       0.00000000       0.00000000       0.00000000       0.00000000       0.00000000       0.85684413
Ce       0.00000000       0.00000000       3.88363636       0.00000000       0.00000000      -0.85684413
2
Properties=species:S:1:pos:R:3:forces:R:3 energy=-3.9199252997437157 pbc="F F F"
Ce       0.00000000       0.00000000       0.00000000       0.00000000       0.00000000       0.83922392
Ce       0.00000000       0.00000000       3.94242424       0.00000000       0.00000000      -0.83922392
2
Properties=species:S:1:pos:R:3:forces:R:3 energy=-3.87154146113857 pbc="F F F"
Ce       0.00000000       0.00000000       0.00000000       0.00000000       0.00000000       0.80503070
Ce       0.00000000       0.00000000       4.00121212       0.00000000       0.00000000      -0.80503070
2
Properties=species:S:1:pos:R:3:forces:R:3 energy=-3.8253682508606697 pbc="F F F"
Ce       0.00000000       0.00000000       0.00000000       0.00000000       0.00000000       0.76594061
Ce       0.00000000       0.00000000       4.06000000       0.00000000       0.00000000      -0.76594061
2
Properties=species:S:1:pos:R:3:forces:R:3 energy=-3.7813717707861074 pbc="F F F"
Ce       0.00000000       0.00000000       0.00000000       0.00000000       0.00000000       0.73252261
Ce       0.00000000       0.00000000       4.11878788       0.00000000       0.00000000      -0.73252261
2
Properties=species:S:1:pos:R:3:forces:R:3 energy=-3.7389905214823576 pbc="F F F"
Ce       0.00000000       0.00000000       0.00000000       0.00000000       0.00000000       0.71175641
Ce       0.00000000       0.00000000       4.17757576       0.00000000       0.00000000      -0.71175641
2
Properties=species:S:1:pos:R:3:forces:R:3 energy=-3.6973819143477793 pbc="F F F"
Ce       0.00000000       0.00000000       0.00000000       0.00000000       0.00000000       0.70635915
Ce       0.00000000       0.00000000       4.23636364       0.00000000       0.00000000      -0.70635915
2
Properties=species:S:1:pos:R:3:forces:R:3 energy=-3.65565452298588 pbc="F F F"
Ce       0.00000000       0.00000000       0.00000000       0.00000000       0.00000000       0.71536714
Ce       0.00000000       0.00000000       4.29515152       0.00000000       0.00000000      -0.71536714
2
Properties=species:S:1:pos:R:3:forces:R:3 energy=-3.6130568948808564 pbc="F F F"
Ce       0.00000000       0.00000000       0.00000000       0.00000000       0.00000000       0.73535174
Ce       0.00000000       0.00000000       4.35393939       0.00000000       0.00000000      -0.73535174
2
Properties=species:S:1:pos:R:3:forces:R:3 energy=-3.5690717457432686 pbc="F F F"
Ce       0.00000000       0.00000000       0.00000000       0.00000000       0.00000000       0.76170945
Ce       0.00000000       0.00000000       4.41272727       0.00000000       0.00000000      -0.76170945
2
Properties=species:S:1:pos:R:3:forces:R:3 energy=-3.5234641232308452 pbc="F F F"
Ce       0.00000000       0.00000000       0.00000000       0.00000000       0.00000000       0.78981012
Ce       0.00000000       0.00000000       4.47151515       0.00000000       0.00000000      -0.78981012
2
Properties=species:S:1:pos:R:3:forces:R:3 energy=-3.476249484201458 pbc="F F F"
Ce       0.00000000       0.00000000       0.00000000       0.00000000       0.00000000       0.81584674
Ce       0.00000000       0.00000000       4.53030303       0.00000000       0.00000000      -0.81584674
2
Properties=species:S:1:pos:R:3:forces:R:3 energy=-3.4276314421214 pbc="F F F"
Ce       0.00000000       0.00000000       0.00000000       0.00000000       0.00000000       0.83732039
Ce       0.00000000       0.00000000       4.58909091       0.00000000       0.00000000      -0.83732039
2
Properties=species:S:1:pos:R:3:forces:R:3 energy=-3.377913583869338 pbc="F F F"
Ce       0.00000000       0.00000000       0.00000000       0.00000000       0.00000000       0.85316932
Ce       0.00000000       0.00000000       4.64787879       0.00000000       0.00000000      -0.85316932
2
Properties=species:S:1:pos:R:3:forces:R:3 energy=-3.327427960001697 pbc="F F F"
Ce       0.00000000       0.00000000       0.00000000       0.00000000       0.00000000       0.86344552
Ce       0.00000000       0.00000000       4.70666667       0.00000000       0.00000000      -0.86344552
2
Properties=species:S:1:pos:R:3:forces:R:3 energy=-3.2764883388720403 pbc="F F F"
Ce       0.00000000       0.00000000       0.00000000       0.00000000       0.00000000       0.86881793
Ce       0.00000000       0.00000000       4.76545455       0.00000000       0.00000000      -0.86881793
2
Properties=species:S:1:pos:R:3:forces:R:3 energy=-3.2253585159669846 pbc="F F F"
Ce       0.00000000       0.00000000       0.00000000       0.00000000       0.00000000       0.86993426
Ce       0.00000000       0.00000000       4.82424242       0.00000000       0.00000000      -0.86993426
2
Properties=species:S:1:pos:R:3:forces:R:3 energy=-3.174289047790405 pbc="F F F"
Ce       0.00000000       0.00000000       0.00000000       0.00000000       0.00000000       0.86690718
Ce       0.00000000       0.00000000       4.88303030       0.00000000       0.00000000      -0.86690718
2
Properties=species:S:1:pos:R:3:forces:R:3 energy=-3.123525092750053 pbc="F F F"
Ce       0.00000000       0.00000000       0.00000000       0.00000000       0.00000000       0.85908461
Ce       0.00000000       0.00000000       4.94181818       0.00000000       0.00000000      -0.85908461
2
Properties=species:S:1:pos:R:3:forces:R:3 energy=-3.0733970450636616 pbc="F F F"
Ce       0.00000000       0.00000000       0.00000000       0.00000000       0.00000000       0.84506077
Ce       0.00000000       0.00000000       5.00060606       0.00000000       0.00000000      -0.84506077
2
Properties=species:S:1:pos:R:3:forces:R:3 energy=-3.024320285252989 pbc="F F F"
Ce       0.00000000       0.00000000       0.00000000       0.00000000       0.00000000       0.82307518
Ce       0.00000000       0.00000000       5.05939394       0.00000000       0.00000000      -0.82307518
2
Properties=species:S:1:pos:R:3:forces:R:3 energy=-2.9768104389328793 pbc="F F F"
Ce       0.00000000       0.00000000       0.00000000       0.00000000       0.00000000       0.79154110
Ce       0.00000000       0.00000000       5.11818182       0.00000000       0.00000000      -0.79154110
2
Properties=species:S:1:pos:R:3:forces:R:3 energy=-2.9314626280592377 pbc="F F F"
Ce       0.00000000       0.00000000       0.00000000       0.00000000       0.00000000       0.74955255
Ce       0.00000000       0.00000000       5.17696970       0.00000000       0.00000000      -0.74955255
2
Properties=species:S:1:pos:R:3:forces:R:3 energy=-2.888889003677394 pbc="F F F"
Ce       0.00000000       0.00000000       0.00000000       0.00000000       0.00000000       0.69722617
Ce       0.00000000       0.00000000       5.23575758       0.00000000       0.00000000      -0.69722617
2
Properties=species:S:1:pos:R:3:forces:R:3 energy=-2.8496677275139977 pbc="F F F"
Ce       0.00000000       0.00000000       0.00000000       0.00000000       0.00000000       0.63575435
Ce       0.00000000       0.00000000       5.29454545       0.00000000       0.00000000      -0.63575435
2
Properties=species:S:1:pos:R:3:forces:R:3 energy=-2.8142764341865147 pbc="F F F"
Ce       0.00000000       0.00000000       0.00000000       0.00000000       0.00000000       0.56719565
Ce       0.00000000       0.00000000       5.35333333       0.00000000       0.00000000      -0.56719565
2
Properties=species:S:1:pos:R:3:forces:R:3 energy=-2.783060984114167 pbc="F F F"
Ce       0.00000000       0.00000000       0.00000000       0.00000000       0.00000000       0.49420762
Ce       0.00000000       0.00000000       5.41212121       0.00000000       0.00000000      -0.49420762
2
Properties=species:S:1:pos:R:3:forces:R:3 energy=-2.7561999407335556 pbc="F F F"
Ce       0.00000000       0.00000000       0.00000000       0.00000000       0.00000000       0.41962364
Ce       0.00000000       0.00000000       5.47090909       0.00000000       0.00000000      -0.41962364
2
Properties=species:S:1:pos:R:3:forces:R:3 energy=-2.733702636223542 pbc="F F F"
Ce       0.00000000       0.00000000       0.00000000       0.00000000       0.00000000       0.34608653
Ce       0.00000000       0.00000000       5.52969697       0.00000000       0.00000000      -0.34608653
2
Properties=species:S:1:pos:R:3:forces:R:3 energy=-2.7154403948356416 pbc="F F F"
Ce       0.00000000       0.00000000       0.00000000       0.00000000       0.00000000       0.27596471
Ce       0.00000000       0.00000000       5.58848485       0.00000000       0.00000000      -0.27596471
2
Properties=species:S:1:pos:R:3:forces:R:3 energy=-2.7011508212606263 pbc="F F F"
Ce       0.00000000       0.00000000       0.00000000       0.00000000       0.00000000       0.21119581
Ce       0.00000000       0.00000000       5.64727273       0.00000000       0.00000000      -0.21119581
2
Properties=species:S:1:pos:R:3:forces:R:3 energy=-2.690477812184215 pbc="F F F"
Ce       0.00000000       0.00000000       0.00000000       0.00000000       0.00000000       0.15330954
Ce       0.00000000       0.00000000       5.70606061       0.00000000       0.00000000      -0.15330954
2
Properties=species:S:1:pos:R:3:forces:R:3 energy=-2.6829570175054815 pbc="F F F"
Ce       0.00000000       0.00000000       0.00000000       0.00000000       0.00000000       0.10355359
Ce       0.00000000       0.00000000       5.76484848       0.00000000       0.00000000      -0.10355359
2
Properties=species:S:1:pos:R:3:forces:R:3 energy=-2.6781140624557995 pbc="F F F"
Ce       0.00000000       0.00000000       0.00000000       0.00000000       0.00000000       0.06308055
Ce       0.00000000       0.00000000       5.82363636       0.00000000       0.00000000      -0.06308055
2
Properties=species:S:1:pos:R:3:forces:R:3 energy=-2.6753522096824867 pbc="F F F"
Ce       0.00000000       0.00000000       0.00000000       0.00000000       0.00000000       0.03287155
Ce       0.00000000       0.00000000       5.88242424       0.00000000       0.00000000      -0.03287155
2
Properties=species:S:1:pos:R:3:forces:R:3 energy=-2.6740288963644305 pbc="F F F"
Ce       0.00000000       0.00000000       0.00000000       0.00000000       0.00000000       0.01395372
Ce       0.00000000       0.00000000       5.94121212       0.00000000       0.00000000      -0.01395372
2
Properties=species:S:1:pos:R:3:forces:R:3 energy=-2.6734674135546412 pbc="F F F"
Ce       0.00000000       0.00000000       0.00000000       0.00000000       0.00000000       0.00735437
Ce       0.00000000       0.00000000       6.00000000       0.00000000       0.00000000      -0.00735437
