2
Properties=species:S:1:pos:R:3:forces:R:3 energy=56063.06922603241 pbc="F F F"
Ce       0.00000000       0.00000000       0.00000000       0.00000000       0.00000000 -1376594.50000000
Ce       0.00000000       0.00000000       0.10000000       0.00000000       0.00000000 1376594.50000000
2
Properties=species:S:1:pos:R:3:forces:R:3 energy=15982.026257282409 pbc="F F F"
Ce       0.00000000       0.00000000       0.00000000       0.00000000       0.00000000 -293286.56250000
Ce       0.00000000       0.00000000       0.15959596       0.00000000       0.00000000  293286.56250000
2
Properties=species:S:1:pos:R:3:forces:R:3 energy=5931.415905719909 pbc="F F F"
Ce       0.00000000       0.00000000       0.00000000       0.00000000       0.00000000  -90318.88281250
Ce       0.00000000       0.00000000       0.21919192       0.00000000       0.00000000   90318.88281250
2
Properties=species:S:1:pos:R:3:forces:R:3 energy=2537.331188923034 pbc="F F F"
Ce       0.00000000       0.00000000       0.00000000       0.00000000       0.00000000  -34027.27734375
Ce       0.00000000       0.00000000       0.27878788       0.00000000       0.00000000   34027.27734375
2
Properties=species:S:1:pos:R:3:forces:R:3 energy=1185.4882934152215 pbc="F F F"
Ce       0.00000000       0.00000000       0.00000000       0.00000000       0.00000000  -14456.14062500
Ce       0.00000000       0.00000000       0.33838384       0.00000000       0.00000000   14456.14062500
2
Properties=species:S:1:pos:R:3:forces:R:3 energy=589.5592162667839 pbc="F F F"
Ce       0.00000000       0.00000000       0.00000000       0.00000000       0.00000000   -6654.71240234
Ce       0.00000000       0.00000000       0.39797980       0.00000000       0.00000000    6654.71240234
2
Properties=species:S:1:pos:R:3:forces:R:3 energy=307.4831054285241 pbc="F F F"
Ce       0.00000000       0.00000000       0.00000000       0.00000000       0.00000000   -3256.24267578
Ce       0.00000000       0.00000000       0.45757576       0.00000000       0.00000000    3256.24267578
2
Properties=species:S:1:pos:R:3:forces:R:3 energy=166.21062923381893 pbc="F F F"
Ce       0.00000000       0.00000000       0.00000000       0.00000000       0.00000000   -1676.91503906
Ce       0.00000000       0.00000000       0.51717172       0.00000000       0.00000000    1676.91503906
2
Properties=species:S:1:pos:R:3:forces:R:3 energy=91.9525039349788 pbc="F F F"
Ce       0.00000000       0.00000000       0.00000000       0.00000000       0.00000000    -903.13043213
Ce       0.00000000       0.00000000       0.57676768       0.00000000       0.00000000     903.13043213
2
Properties=species:S:1:pos:R:3:forces:R:3 energy=51.228176853912096 pbc="F F F"
Ce       0.00000000       0.00000000       0.00000000       0.00000000       0.00000000    -505.84649658
Ce       0.00000000       0.00000000       0.63636364       0.00000000       0.00000000     505.84649658
2
Properties=species:S:1:pos:R:3:forces:R:3 energy=28.0601108402192 pbc="F F F"
Ce       0.00000000       0.00000000       0.00000000       0.00000000       0.00000000    -292.89187622
Ce       0.00000000       0.00000000       0.69595960       0.00000000       0.00000000     292.89187622
2
Properties=species:S:1:pos:R:3:forces:R:3 energy=14.475519944193076 pbc="F F F"
Ce       0.00000000       0.00000000       0.00000000       0.00000000       0.00000000    -174.10333252
Ce       0.00000000       0.00000000       0.75555556       0.00000000       0.00000000     174.10333252
2
Properties=species:S:1:pos:R:3:forces:R:3 energy=6.326685739436116 pbc="F F F"
Ce       0.00000000       0.00000000       0.00000000       0.00000000       0.00000000    -105.40995789
Ce       0.00000000       0.00000000       0.81515152       0.00000000       0.00000000     105.40995789
2
Properties=species:S:1:pos:R:3:forces:R:3 energy=1.3671532765527168 pbc="F F F"
Ce       0.00000000       0.00000000       0.00000000       0.00000000       0.00000000     -64.45187378
Ce       0.00000000       0.00000000       0.87474747       0.00000000       0.00000000      64.45187378
2
Properties=species:S:1:pos:R:3:forces:R:3 energy=-1.6697743712209423 pbc="F F F"
Ce       0.00000000       0.00000000       0.00000000       0.00000000       0.00000000     -39.48472214
Ce       0.00000000       0.00000000       0.93434343       0.00000000       0.00000000      39.48472214
2
Properties=species:S:1:pos:R:3:forces:R:3 energy=-3.5278549270629127 pbc="F F F"
Ce       0.00000000       0.00000000       0.00000000       0.00000000       0.00000000     -24.10441780
Ce       0.00000000       0.00000000       0.99393939       0.00000000       0.00000000      24.10441780
2
Properties=species:S:1:pos:R:3:forces:R:3 energy=-4.65885439715276 pbc="F F F"
Ce       0.00000000       0.00000000       0.00000000       0.00000000       0.00000000     -14.60618973
Ce       0.00000000       0.00000000       1.05353535       0.00000000       0.00000000      14.60618973
2
Properties=species:S:1:pos:R:3:forces:R:3 energy=-5.3378074380484195 pbc="F F F"
Ce       0.00000000       0.00000000       0.00000000       0.00000000       0.00000000      -8.59980297
Ce       0.00000000       0.00000000       1.11313131       0.00000000       0.00000000       8.59980297
2
Properties=species:S:1:pos:R:3:forces:R:3 energy=-5.717841716870153 pbc="F F F"
Ce       0.00000000       0.00000000       0.00000000       0.00000000       0.00000000      -4.32208872
Ce       0.00000000       0.00000000       1.17272727       0.00000000       0.00000000       4.32208872
2
Properties=species:S:1:pos:R:3:forces:R:3 energy=-5.866258017455465 pbc="F F F"
Ce       0.00000000       0.00000000       0.00000000       0.00000000       0.00000000      -0.79086602
Ce       0.00000000       0.00000000       1.23232323       0.00000000       0.00000000       0.79086602
2
Properties=species:S:1:pos:R:3:forces:R:3 energy=-5.848601886062506 pbc="F F F"
Ce       0.00000000       0.00000000       0.00000000       0.00000000       0.00000000       0.83254975
Ce       0.00000000       0.00000000       1.29191919       0.00000000       0.00000000      -0.83254975
2
Properties=species:S:1:pos:R:3:forces:R:3 energy=-5.845646568229219 pbc="F F F"
Ce       0.00000000       0.00000000       0.00000000       0.00000000       0.00000000      -1.20141208
Ce       0.00000000       0.00000000       1.35151515       0.00000000       0.00000000       1.20141208
2
Properties=species:S:1:pos:R:3:forces:R:3 energy=-5.972232555623815 pbc="F F F"
Ce       0.00000000       0.00000000       0.00000000       0.00000000       0.00000000      -2.28969717
Ce       0.00000000       0.00000000       1.41111111       0.00000000       0.00000000       2.28969717
2
Properties=species:S:1:pos:R:3:forces:R:3 energy=-6.034639491678426 pbc="F F F"
Ce       0.00000000       0.00000000       0.00000000       0.00000000       0.00000000       0.45038366
Ce       0.00000000       0.00000000       1.47070707       0.00000000       0.00000000      -0.45038366
2
Properties=species:S:1:pos:R:3:forces:R:3 energy=-5.935833371958018 pbc="F F F"
Ce       0.00000000       0.00000000       0.00000000       0.00000000       0.00000000       2.60065913
Ce       0.00000000       0.00000000       1.53030303       0.00000000       0.00000000      -2.60065913
2
Properties=species:S:1:pos:R:3:forces:R:3 energy=-5.739242577818767 pbc="F F F"
Ce       0.00000000       0.00000000       0.00000000       0.00000000       0.00000000       4.02577257
Ce       0.00000000       0.00000000       1.58989899       0.00000000       0.00000000      -4.02577257
2
Properties=species:S:1:pos:R:3:forces:R:3 energy=-5.446184580234479 pbc="F F F"
Ce       0.00000000       0.00000000       0.00000000       0.00000000       0.00000000       5.87586975
Ce       0.00000000       0.00000000       1.64949495       0.00000000       0.00000000      -5.87586975
2
Properties=species:S:1:pos:R:3:forces:R:3 energy=-5.039251928645658 pbc="F F F"
Ce       0.00000000       0.00000000       0.00000000       0.00000000       0.00000000       7.70168304
Ce       0.00000000       0.00000000       1.70909091       0.00000000       0.00000000      -7.70168304
2
Properties=species:S:1:pos:R:3:forces:R:3 energy=-4.5445800391830184 pbc="F F F"
Ce       0.00000000       0.00000000       0.00000000       0.00000000       0.00000000       8.72222137
Ce       0.00000000       0.00000000       1.76868687       0.00000000       0.00000000      -8.72222137
2
Properties=species:S:1:pos:R:3:forces:R:3 energy=-4.022195980491142 pbc="F F F"
Ce       0.00000000       0.00000000       0.00000000       0.00000000       0.00000000       8.62138367
Ce       0.00000000       0.00000000       1.82828283       0.00000000       0.00000000      -8.62138367
2
Properties=species:S:1:pos:R:3:forces:R:3 energy=-3.537545616103453 pbc="F F F"
Ce       0.00000000       0.00000000       0.00000000       0.00000000       0.00000000       7.48870230
Ce       0.00000000       0.00000000       1.88787879       0.00000000       0.00000000      -7.48870230
2
Properties=species:S:1:pos:R:3:forces:R:3 energy=-3.1457724884927067 pbc="F F F"
Ce       0.00000000       0.00000000       0.00000000       0.00000000       0.00000000       5.54200077
Ce       0.00000000       0.00000000       1.94747475       0.00000000       0.00000000      -5.54200077
2
Properties=species:S:1:pos:R:3:forces:R:3 energy=-2.88814488458022 pbc="F F F"
Ce       0.00000000       0.00000000       0.00000000       0.00000000       0.00000000       3.04138994
Ce       0.00000000       0.00000000       2.00707071       0.00000000       0.00000000      -3.04138994
2
Properties=species:S:1:pos:R:3:forces:R:3 energy=-2.7851655451354764 pbc="F F F"
Ce       0.00000000       0.00000000       0.00000000       0.00000000       0.00000000       0.45253682
Ce       0.00000000       0.00000000       2.06666667       0.00000000       0.00000000      -0.45253682
2
Properties=species:S:1:pos:R:3:forces:R:3 energy=-2.8235704596552327 pbc="F F F"
Ce       0.00000000       0.00000000       0.00000000       0.00000000       0.00000000      -1.61306500
Ce       0.00000000       0.00000000       2.12626263       0.00000000       0.00000000       1.61306500
2
Properties=species:S:1:pos:R:3:forces:R:3 energy=-2.96057771910995 pbc="F F F"
Ce       0.00000000       0.00000000       0.00000000       0.00000000       0.00000000      -2.84700894
Ce       0.00000000       0.00000000       2.18585859       0.00000000       0.00000000       2.84700894
2
Properties=species:S:1:pos:R:3:forces:R:3 energy=-3.1487478948560526 pbc="F F F"
Ce       0.00000000       0.00000000       0.00000000       0.00000000       0.00000000      -3.37168550
Ce       0.00000000       0.00000000       2.24545455       0.00000000       0.00000000       3.37168550
2
Properties=species:S:1:pos:R:3:forces:R:3 energy=-3.3535962638283836 pbc="F F F"
Ce       0.00000000       0.00000000       0.00000000       0.00000000       0.00000000      -3.44747233
Ce       0.00000000       0.00000000       2.30505051       0.00000000       0.00000000       3.44747233
2
Properties=species:S:1:pos:R:3:forces:R:3 energy=-3.5547853814406913 pbc="F F F"
Ce       0.00000000       0.00000000       0.00000000       0.00000000       0.00000000      -3.27537942
Ce       0.00000000       0.00000000       2.36464646       0.00000000       0.00000000       3.27537942
2
Properties=species:S:1:pos:R:3:forces:R:3 energy=-3.7415889091088013 pbc="F F F"
Ce       0.00000000       0.00000000       0.00000000       0.00000000       0.00000000      -2.98056436
Ce       0.00000000       0.00000000       2.42424242       0.00000000       0.00000000       2.98056436
2
Properties=species:S:1:pos:R:3:forces:R:3 energy=-3.909084568554275 pbc="F F F"
Ce       0.00000000       0.00000000       0.00000000       0.00000000       0.00000000      -2.63627672
Ce       0.00000000       0.00000000       2.48383838       0.00000000       0.00000000       2.63627672
2
Properties=species:S:1:pos:R:3:forces:R:3 energy=-4.055572292756122 pbc="F F F"
Ce       0.00000000       0.00000000       0.00000000       0.00000000       0.00000000      -2.27908087
Ce       0.00000000       0.00000000       2.54343434       0.00000000       0.00000000       2.27908087
2
Properties=species:S:1:pos:R:3:forces:R:3 energy=-4.180717183638177 pbc="F F F"
Ce       0.00000000       0.00000000       0.00000000       0.00000000       0.00000000      -1.92063522
Ce       0.00000000       0.00000000       2.60303030       0.00000000       0.00000000       1.92063522
2
Properties=species:S:1:pos:R:3:forces:R:3 energy=-4.284461859182525 pbc="F F F"
Ce       0.00000000       0.00000000       0.00000000       0.00000000       0.00000000      -1.56050074
Ce       0.00000000       0.00000000       2.66262626       0.00000000       0.00000000       1.56050074
2
Properties=species:S:1:pos:R:3:forces:R:3 energy=-4.3666697554765035 pbc="F F F"
Ce       0.00000000       0.00000000       0.00000000       0.00000000       0.00000000      -1.19831753
Ce       0.00000000       0.00000000       2.72222222       0.00000000       0.00000000       1.19831753
2
Properties=species:S:1:pos:R:3:forces:R:3 energy=-4.427390262427858 pbc="F F F"
Ce       0.00000000       0.00000000       0.00000000       0.00000000       0.00000000      -0.84143806
Ce       0.00000000       0.00000000       2.78181818       0.00000000       0.00000000       0.84143806
2
Properties=species:S:1:pos:R:3:forces:R:3 energy=-4.467375618412061 pbc="F F F"
Ce       0.00000000       0.00000000       0.00000000       0.00000000       0.00000000      -0.50543404
Ce       0.00000000       0.00000000       2.84141414       0.00000000       0.00000000       0.50543404
2
Properties=species:S:1:pos:R:3:forces:R:3 energy=-4.488414680443939 pbc="F F F"
Ce       0.00000000       0.00000000       0.00000000       0.00000000       0.00000000      -0.20849872
Ce       0.00000000       0.00000000       2.90101010       0.00000000       0.00000000       0.20849872
2
Properties=species:S:1:pos:R:3:forces:R:3 energy=-4.493275241136735 pbc="F F F"
Ce       0.00000000       0.00000000       0.00000000       0.00000000       0.00000000       0.03600101
Ce       0.00000000       0.00000000       2.96060606       0.00000000       0.00000000      -0.03600101
2
Properties=species:S:1:pos:R:3:forces:R:3 energy=-4.48525435859063 pbc="F F F"
Ce       0.00000000       0.00000000       0.00000000       0.00000000       0.00000000       0.22386885
Ce       0.00000000       0.00000000       3.02020202       0.00000000       0.00000000      -0.22386885
2
Properties=species:S:1:pos:R:3:forces:R:3 energy=-4.4676333378565625 pbc="F F F"
Ce       0.00000000       0.00000000       0.00000000       0.00000000       0.00000000       0.35943431
Ce       0.00000000       0.00000000       3.07979798       0.00000000       0.00000000      -0.35943431
2
Properties=species:S:1:pos:R:3:forces:R:3 energy=-4.443277661392673 pbc="F F F"
Ce       0.00000000       0.00000000       0.00000000       0.00000000       0.00000000       0.45144534
Ce       0.00000000       0.00000000       3.13939394       0.00000000       0.00000000      -0.45144534
2
Properties=species:S:1:pos:R:3:forces:R:3 energy=-4.4145092014576415 pbc="F F F"
Ce       0.00000000       0.00000000       0.00000000       0.00000000       0.00000000       0.50891590
Ce       0.00000000       0.00000000       3.19898990       0.00000000       0.00000000      -0.50891590
2
Properties=species:S:1:pos:R:3:forces:R:3 energy=-4.383153412734146 pbc="F F F"
Ce       0.00000000       0.00000000       0.00000000       0.00000000       0.00000000       0.53950632
Ce       0.00000000       0.00000000       3.25858586       0.00000000       0.00000000      -0.53950632
2
Properties=species:S:1:pos:R:3:forces:R:3 energy=-4.350591803423202 pbc="F F F"
Ce       0.00000000       0.00000000       0.00000000       0.00000000       0.00000000       0.55066526
Ce       0.00000000       0.00000000       3.31818182       0.00000000       0.00000000      -0.55066526
2
Properties=species:S:1:pos:R:3:forces:R:3 energy=-4.3177242461017284 pbc="F F F"
Ce       0.00000000       0.00000000       0.00000000       0.00000000       0.00000000       0.55153465
Ce       0.00000000       0.00000000       3.37777778       0.00000000       0.00000000      -0.55153465
2
Properties=species:S:1:pos:R:3:forces:R:3 energy=-4.284836432831679 pbc="F F F"
Ce       0.00000000       0.00000000       0.00000000       0.00000000       0.00000000       0.55329925
Ce       0.00000000       0.00000000       3.43737374       0.00000000       0.00000000      -0.55329925
2
Properties=species:S:1:pos:R:3:forces:R:3 energy=-4.251533586875497 pbc="F F F"
Ce       0.00000000       0.00000000       0.00000000       0.00000000       0.00000000       0.56712812
Ce       0.00000000       0.00000000       3.49696970       0.00000000       0.00000000      -0.56712812
2
Properties=species:S:1:pos:R:3:forces:R:3 energy=-4.216844413196601 pbc="F F F"
Ce       0.00000000       0.00000000       0.00000000       0.00000000       0.00000000       0.60055637
Ce       0.00000000       0.00000000       3.55656566       0.00000000       0.00000000      -0.60055637
2
Properties=species:S:1:pos:R:3:forces:R:3 energy=-4.179544875641544 pbc="F F F"
Ce       0.00000000       0.00000000       0.00000000       0.00000000       0.00000000       0.65416169
Ce       0.00000000       0.00000000       3.61616162       0.00000000       0.00000000      -0.65416169
2
Properties=species:S:1:pos:R:3:forces:R:3 energy=-4.138620247394571 pbc="F F F"
Ce       0.00000000       0.00000000       0.00000000       0.00000000       0.00000000       0.72032934
Ce       0.00000000       0.00000000       3.67575758       0.00000000       0.00000000      -0.72032934
2
Properties=species:S:1:pos:R:3:forces:R:3 energy=-4.093711443228992 pbc="F F F"
Ce       0.00000000       0.00000000       0.00000000       0.00000000       0.00000000       0.78528869
Ce       0.00000000       0.00000000       3.73535354       0.00000000       0.00000000      -0.78528869
2
Properties=species:S:1:pos:R:3:forces:R:3 energy=-4.045343895007474 pbc="F F F"
Ce       0.00000000       0.00000000       0.00000000       0.00000000       0.00000000       0.83410215
Ce       0.00000000       0.00000000       3.79494949       0.00000000       0.00000000      -0.83410215
2
Properties=species:S:1:pos:R:3:forces:R:3 energy=-3.9948238364323063 pbc="F F F"
Ce       0.00000000       0.00000000       0.00000000       0.00000000       0.00000000       0.85646826
Ce       0.00000000       0.00000000       3.85454545       0.00000000       0.00000000      -0.85646826
2
Properties=species:S:1:pos:R:3:forces:R:3 energy=-3.943830394199139 pbc="F F F"
Ce       0.00000000       0.00000000       0.00000000       0.00000000       0.00000000       0.85043597
Ce       0.00000000       0.00000000       3.91414141       0.00000000       0.00000000      -0.85043597
2
Properties=species:S:1:pos:R:3:forces:R:3 energy=-3.8939003337693205 pbc="F F F"
Ce       0.00000000       0.00000000       0.00000000       0.00000000       0.00000000       0.82234526
Ce       0.00000000       0.00000000       3.97373737       0.00000000       0.00000000      -0.82234526
2
Properties=species:S:1:pos:R:3:forces:R:3 energy=-3.846026606832203 pbc="F F F"
Ce       0.00000000       0.00000000       0.00000000       0.00000000       0.00000000       0.78353965
Ce       0.00000000       0.00000000       4.03333333       0.00000000       0.00000000      -0.78353965
2
Properties=species:S:1:pos:R:3:forces:R:3 energy=-3.8004818977979373 pbc="F F F"
Ce       0.00000000       0.00000000       0.00000000       0.00000000       0.00000000       0.74597716
Ce       0.00000000       0.00000000       4.09292929       0.00000000       0.00000000      -0.74597716
2
Properties=species:S:1:pos:R:3:forces:R:3 energy=-3.75690256139252 pbc="F F F"
Ce       0.00000000       0.00000000       0.00000000       0.00000000       0.00000000       0.71878892
Ce       0.00000000       0.00000000       4.15252525       0.00000000       0.00000000      -0.71878892
2
Properties=species:S:1:pos:R:3:forces:R:3 energy=-3.7145055930682416 pbc="F F F"
Ce       0.00000000       0.00000000       0.00000000       0.00000000       0.00000000       0.70671493
Ce       0.00000000       0.00000000       4.21212121       0.00000000       0.00000000      -0.70671493
2
Properties=species:S:1:pos:R:3:forces:R:3 energy=-3.6723554162258765 pbc="F F F"
Ce       0.00000000       0.00000000       0.00000000       0.00000000       0.00000000       0.71022916
Ce       0.00000000       0.00000000       4.27171717       0.00000000       0.00000000      -0.71022916
2
Properties=species:S:1:pos:R:3:forces:R:3 energy=-3.6295946983257448 pbc="F F F"
Ce       0.00000000       0.00000000       0.00000000       0.00000000       0.00000000       0.72664076
Ce       0.00000000       0.00000000       4.33131313       0.00000000       0.00000000      -0.72664076
2
Properties=species:S:1:pos:R:3:forces:R:3 energy=-3.5855785647086336 pbc="F F F"
Ce       0.00000000       0.00000000       0.00000000       0.00000000       0.00000000       0.75148720
Ce       0.00000000       0.00000000       4.39090909       0.00000000       0.00000000      -0.75148720
2
Properties=species:S:1:pos:R:3:forces:R:3 energy=-3.539953535736325 pbc="F F F"
Ce       0.00000000       0.00000000       0.00000000       0.00000000       0.00000000       0.77983147
Ce       0.00000000       0.00000000       4.45050505       0.00000000       0.00000000      -0.77983147
2
Properties=species:S:1:pos:R:3:forces:R:3 energy=-3.492647292215716 pbc="F F F"
Ce       0.00000000       0.00000000       0.00000000       0.00000000       0.00000000       0.80731565
Ce       0.00000000       0.00000000       4.51010101       0.00000000       0.00000000      -0.80731565
2
Properties=species:S:1:pos:R:3:forces:R:3 energy=-3.443807622819545 pbc="F F F"
Ce       0.00000000       0.00000000       0.00000000       0.00000000       0.00000000       0.83083445
Ce       0.00000000       0.00000000       4.56969697       0.00000000       0.00000000      -0.83083445
2
Properties=species:S:1:pos:R:3:forces:R:3 energy=-3.3937290323457194 pbc="F F F"
Ce       0.00000000       0.00000000       0.00000000       0.00000000       0.00000000       0.84877956
Ce       0.00000000       0.00000000       4.62929293       0.00000000       0.00000000      -0.84877956
2
Properties=species:S:1:pos:R:3:forces:R:3 energy=-3.3427575984490536 pbc="F F F"
Ce       0.00000000       0.00000000       0.00000000       0.00000000       0.00000000       0.86089015
Ce       0.00000000       0.00000000       4.68888889       0.00000000       0.00000000      -0.86089015
2
Properties=species:S:1:pos:R:3:forces:R:3 energy=-3.2912225645159974 pbc="F F F"
Ce       0.00000000       0.00000000       0.00000000       0.00000000       0.00000000       0.86772549
Ce       0.00000000       0.00000000       4.74848485       0.00000000       0.00000000      -0.86772549
2
Properties=species:S:1:pos:R:3:forces:R:3 energy=-3.239421314542422 pbc="F F F"
Ce       0.00000000       0.00000000       0.00000000       0.00000000       0.00000000       0.87002671
Ce       0.00000000       0.00000000       4.80808081       0.00000000       0.00000000      -0.87002671
2
Properties=species:S:1:pos:R:3:forces:R:3 energy=-3.1876053270282965 pbc="F F F"
Ce       0.00000000       0.00000000       0.00000000       0.00000000       0.00000000       0.86812198
Ce       0.00000000       0.00000000       4.86767677       0.00000000       0.00000000      -0.86812198
2
Properties=species:S:1:pos:R:3:forces:R:3 energy=-3.136038355446632 pbc="F F F"
Ce       0.00000000       0.00000000       0.00000000       0.00000000       0.00000000       0.86153650
Ce       0.00000000       0.00000000       4.92727273       0.00000000       0.00000000      -0.86153650
2
Properties=species:S:1:pos:R:3:forces:R:3 energy=-3.0850343257101818 pbc="F F F"
Ce       0.00000000       0.00000000       0.00000000       0.00000000       0.00000000       0.84899217
Ce       0.00000000       0.00000000       4.98686869       0.00000000       0.00000000      -0.84899217
2
Properties=species:S:1:pos:R:3:forces:R:3 energy=-3.035005995736334 pbc="F F F"
Ce       0.00000000       0.00000000       0.00000000       0.00000000       0.00000000       0.82867712
Ce       0.00000000       0.00000000       5.04646465       0.00000000       0.00000000      -0.82867712
2
Properties=species:S:1:pos:R:3:forces:R:3 energy=-2.986455628612125 pbc="F F F"
Ce       0.00000000       0.00000000       0.00000000       0.00000000       0.00000000       0.79887843
Ce       0.00000000       0.00000000       5.10606061       0.00000000       0.00000000      -0.79887843
2
Properties=species:S:1:pos:R:3:forces:R:3 energy=-2.939988852550051 pbc="F F F"
Ce       0.00000000       0.00000000       0.00000000       0.00000000       0.00000000       0.75846320
Ce       0.00000000       0.00000000       5.16565657       0.00000000       0.00000000      -0.75846320
2
Properties=species:S:1:pos:R:3:forces:R:3 energy=-2.8962624250444895 pbc="F F F"
Ce       0.00000000       0.00000000       0.00000000       0.00000000       0.00000000       0.70730567
Ce       0.00000000       0.00000000       5.22525253       0.00000000       0.00000000      -0.70730567
2
Properties=species:S:1:pos:R:3:forces:R:3 energy=-2.8558807433692572 pbc="F F F"
Ce       0.00000000       0.00000000       0.00000000       0.00000000       0.00000000       0.64644557
Ce       0.00000000       0.00000000       5.28484848       0.00000000       0.00000000      -0.64644557
2
Properties=species:S:1:pos:R:3:forces:R:3 energy=-2.8193631970713846 pbc="F F F"
Ce       0.00000000       0.00000000       0.00000000       0.00000000       0.00000000       0.57792222
Ce       0.00000000       0.00000000       5.34444444       0.00000000       0.00000000      -0.57792222
2
Properties=species:S:1:pos:R:3:forces:R:3 energy=-2.7870935899702136 pbc="F F F"
Ce       0.00000000       0.00000000       0.00000000       0.00000000       0.00000000       0.50441235
Ce       0.00000000       0.00000000       5.40404040       0.00000000       0.00000000      -0.50441235
2
Properties=species:S:1:pos:R:3:forces:R:3 energy=-2.7592760343041767 pbc="F F F"
Ce       0.00000000       0.00000000       0.00000000       0.00000000       0.00000000       0.42884061
Ce       0.00000000       0.00000000       5.46363636       0.00000000       0.00000000      -0.42884061
2
Properties=species:S:1:pos:R:3:forces:R:3 energy=-2.735970452924324 pbc="F F F"
Ce       0.00000000       0.00000000       0.00000000       0.00000000       0.00000000       0.35405970
Ce       0.00000000       0.00000000       5.52323232       0.00000000       0.00000000      -0.35405970
2
Properties=species:S:1:pos:R:3:forces:R:3 energy=-2.717020810550285 pbc="F F F"
Ce       0.00000000       0.00000000       0.00000000       0.00000000       0.00000000       0.28251418
Ce       0.00000000       0.00000000       5.58282828       0.00000000       0.00000000      -0.28251418
2
Properties=species:S:1:pos:R:3:forces:R:3 energy=-2.70219025909075 pbc="F F F"
Ce       0.00000000       0.00000000       0.00000000       0.00000000       0.00000000       0.21631338
Ce       0.00000000       0.00000000       5.64242424       0.00000000       0.00000000      -0.21631338
2
Properties=species:S:1:pos:R:3:forces:R:3 energy=-2.6910953388673735 pbc="F F F"
Ce       0.00000000       0.00000000       0.00000000       0.00000000       0.00000000       0.15703654
Ce       0.00000000       0.00000000       5.70202020       0.00000000       0.00000000      -0.15703654
2
Properties=species:S:1:pos:R:3:forces:R:3 energy=-2.6833091948525905 pbc="F F F"
Ce       0.00000000       0.00000000       0.00000000       0.00000000       0.00000000       0.10607252
Ce       0.00000000       0.00000000       5.76161616       0.00000000       0.00000000      -0.10607252
2
Properties=species:S:1:pos:R:3:forces:R:3 energy=-2.678270468302224 pbc="F F F"
Ce       0.00000000       0.00000000       0.00000000       0.00000000       0.00000000       0.06453955
Ce       0.00000000       0.00000000       5.82121212       0.00000000       0.00000000      -0.06453955
2
Properties=species:S:1:pos:R:3:forces:R:3 energy=-2.675411094657572 pbc="F F F"
Ce       0.00000000       0.00000000       0.00000000       0.00000000       0.00000000       0.03353705
Ce       0.00000000       0.00000000       5.88080808       0.00000000       0.00000000      -0.03353705
2
Properties=species:S:1:pos:R:3:forces:R:3 energy=-2.674038731507688 pbc="F F F"
Ce       0.00000000       0.00000000       0.00000000       0.00000000       0.00000000       0.01413796
Ce       0.00000000       0.00000000       5.94040404       0.00000000       0.00000000      -0.01413796
2
Properties=species:S:1:pos:R:3:forces:R:3 energy=-2.6734674135546412 pbc="F F F"
Ce       0.00000000       0.00000000       0.00000000       0.00000000       0.00000000       0.00735437
Ce       0.00000000       0.00000000       6.00000000       0.00000000       0.00000000      -0.00735437
