2
Properties=species:S:1:pos:R:3:forces:R:3 energy=1921.318242624705 pbc="F F F"
Cl       0.00000000       0.00000000       0.00000000       0.00000000       0.00000000  -28144.30664062
Cl       0.00000000       0.00000000       0.18000000       0.00000000       0.00000000   28144.30664062
2
Properties=species:S:1:pos:R:3:forces:R:3 energy=879.452519968455 pbc="F F F"
Cl       0.00000000       0.00000000       0.00000000       0.00000000       0.00000000  -10655.74804688
Cl       0.00000000       0.00000000       0.23878788       0.00000000       0.00000000   10655.74804688
2
Properties=species:S:1:pos:R:3:forces:R:3 energy=455.5463004923688 pbc="F F F"
Cl       0.00000000       0.00000000       0.00000000       0.00000000       0.00000000   -4712.41259766
Cl       0.00000000       0.00000000       0.29757576       0.00000000       0.00000000    4712.41259766
2
Properties=species:S:1:pos:R:3:forces:R:3 energy=259.1452690045638 pbc="F F F"
Cl       0.00000000       0.00000000       0.00000000       0.00000000       0.00000000   -2297.00903320
Cl       0.00000000       0.00000000       0.35636364       0.00000000       0.00000000    2297.00903320
2
Properties=species:S:1:pos:R:3:forces:R:3 energy=160.86768113294573 pbc="F F F"
Cl       0.00000000       0.00000000       0.00000000       0.00000000       0.00000000   -1178.07910156
Cl       0.00000000       0.00000000       0.41515152       0.00000000       0.00000000    1178.07910156
2
Properties=species:S:1:pos:R:3:forces:R:3 energy=110.04928364581912 pbc="F F F"
Cl       0.00000000       0.00000000       0.00000000       0.00000000       0.00000000    -612.78186035
Cl       0.00000000       0.00000000       0.47393939       0.00000000       0.00000000     612.78186035
2
Properties=species:S:1:pos:R:3:forces:R:3 energy=83.94076320453088 pbc="F F F"
Cl       0.00000000       0.00000000       0.00000000       0.00000000       0.00000000    -300.19985962
Cl       0.00000000       0.00000000       0.53272727       0.00000000       0.00000000     300.19985962
2
Properties=species:S:1:pos:R:3:forces:R:3 energy=72.37463935617014 pbc="F F F"
Cl       0.00000000       0.00000000       0.00000000       0.00000000       0.00000000    -110.90341187
Cl       0.00000000       0.00000000       0.59151515       0.00000000       0.00000000     110.90341187
2
Properties=species:S:1:pos:R:3:forces:R:3 energy=69.125867878759 pbc="F F F"
Cl       0.00000000       0.00000000       0.00000000       0.00000000       0.00000000     -14.04621983
Cl       0.00000000       0.00000000       0.65030303       0.00000000       0.00000000      14.04621983
2
Properties=species:S:1:pos:R:3:forces:R:3 energy=68.89338526637802 pbc="F F F"
Cl       0.00000000       0.00000000       0.00000000       0.00000000       0.00000000      -9.72613239
Cl       0.00000000       0.00000000       0.70909091       0.00000000       0.00000000       9.72613239
2
Properties=species:S:1:pos:R:3:forces:R:3 energy=66.44338114490769 pbc="F F F"
Cl       0.00000000       0.00000000       0.00000000       0.00000000       0.00000000     -81.87943268
Cl       0.00000000       0.00000000       0.76787879       0.00000000       0.00000000      81.87943268
2
Properties=species:S:1:pos:R:3:forces:R:3 energy=59.12440064583169 pbc="F F F"
Cl       0.00000000       0.00000000       0.00000000       0.00000000       0.00000000    -161.15730286
Cl       0.00000000       0.00000000       0.82666667       0.00000000       0.00000000     161.15730286
2
Properties=species:S:1:pos:R:3:forces:R:3 energy=48.66964010372267 pbc="F F F"
Cl       0.00000000       0.00000000       0.00000000       0.00000000       0.00000000    -183.96745300
Cl       0.00000000       0.00000000       0.88545455       0.00000000       0.00000000     183.96745300
2
Properties=species:S:1:pos:R:3:forces:R:3 energy=38.36876101791818 pbc="F F F"
Cl       0.00000000       0.00000000       0.00000000       0.00000000       0.00000000    -162.69773865
Cl       0.00000000       0.00000000       0.94424242       0.00000000       0.00000000     162.69773865
2
Properties=species:S:1:pos:R:3:forces:R:3 energy=29.635990040777877 pbc="F F F"
Cl       0.00000000       0.00000000       0.00000000       0.00000000       0.00000000    -135.72337341
Cl       0.00000000       0.00000000       1.00303030       0.00000000       0.00000000     135.72337341
2
Properties=species:S:1:pos:R:3:forces:R:3 energy=22.27686930387344 pbc="F F F"
Cl       0.00000000       0.00000000       0.00000000       0.00000000       0.00000000    -114.07633209
Cl       0.00000000       0.00000000       1.06181818       0.00000000       0.00000000     114.07633209
2
Properties=species:S:1:pos:R:3:forces:R:3 energy=16.381998044661497 pbc="F F F"
Cl       0.00000000       0.00000000       0.00000000       0.00000000       0.00000000     -85.90759277
Cl       0.00000000       0.00000000       1.12060606       0.00000000       0.00000000      85.90759277
2
Properties=species:S:1:pos:R:3:forces:R:3 energy=12.074315572517099 pbc="F F F"
Cl       0.00000000       0.00000000       0.00000000       0.00000000       0.00000000     -62.42331314
Cl       0.00000000       0.00000000       1.17939394       0.00000000       0.00000000      62.42331314
2
Properties=species:S:1:pos:R:3:forces:R:3 energy=8.834638972488033 pbc="F F F"
Cl       0.00000000       0.00000000       0.00000000       0.00000000       0.00000000     -49.18986893
Cl       0.00000000       0.00000000       1.23818182       0.00000000       0.00000000      49.18986893
2
Properties=species:S:1:pos:R:3:forces:R:3 energy=6.1854347060513915 pbc="F F F"
Cl       0.00000000       0.00000000       0.00000000       0.00000000       0.00000000     -41.39067841
Cl       0.00000000       0.00000000       1.29696970       0.00000000       0.00000000      41.39067841
2
Properties=species:S:1:pos:R:3:forces:R:3 energy=3.948805671527326 pbc="F F F"
Cl       0.00000000       0.00000000       0.00000000       0.00000000       0.00000000     -34.69282913
Cl       0.00000000       0.00000000       1.35575758       0.00000000       0.00000000      34.69282913
2
Properties=species:S:1:pos:R:3:forces:R:3 energy=2.1097199449708515 pbc="F F F"
Cl       0.00000000       0.00000000       0.00000000       0.00000000       0.00000000     -27.89406586
Cl       0.00000000       0.00000000       1.41454545       0.00000000       0.00000000      27.89406586
2
Properties=species:S:1:pos:R:3:forces:R:3 energy=0.6565735510892152 pbc="F F F"
Cl       0.00000000       0.00000000       0.00000000       0.00000000       0.00000000     -21.72521973
Cl       0.00000000       0.00000000       1.47333333       0.00000000       0.00000000      21.72521973
2
Properties=species:S:1:pos:R:3:forces:R:3 energy=-0.4699786392253805 pbc="F F F"
Cl       0.00000000       0.00000000       0.00000000       0.00000000       0.00000000     -16.81921577
Cl       0.00000000       0.00000000       1.53212121       0.00000000       0.00000000      16.81921577
2
Properties=species:S:1:pos:R:3:forces:R:3 energy=-1.3434944065996937 pbc="F F F"
Cl       0.00000000       0.00000000       0.00000000       0.00000000       0.00000000     -13.05592823
Cl       0.00000000       0.00000000       1.59090909       0.00000000       0.00000000      13.05592823
2
Properties=species:S:1:pos:R:3:forces:R:3 energy=-2.019861483042974 pbc="F F F"
Cl       0.00000000       0.00000000       0.00000000       0.00000000       0.00000000     -10.05543327
Cl       0.00000000       0.00000000       1.64969697       0.00000000       0.00000000      10.05543327
2
Properties=species:S:1:pos:R:3:forces:R:3 energy=-2.5358692300051 pbc="F F F"
Cl       0.00000000       0.00000000       0.00000000       0.00000000       0.00000000      -7.57454681
Cl       0.00000000       0.00000000       1.70848485       0.00000000       0.00000000       7.57454681
2
Properties=species:S:1:pos:R:3:forces:R:3 energy=-2.9182001702273115 pbc="F F F"
Cl       0.00000000       0.00000000       0.00000000       0.00000000       0.00000000      -5.48898888
Cl       0.00000000       0.00000000       1.76727273       0.00000000       0.00000000       5.48898888
2
Properties=species:S:1:pos:R:3:forces:R:3 energy=-3.186688380310962 pbc="F F F"
Cl       0.00000000       0.00000000       0.00000000       0.00000000       0.00000000      -3.68230343
Cl       0.00000000       0.00000000       1.82606061       0.00000000       0.00000000       3.68230343
2
Properties=species:S:1:pos:R:3:forces:R:3 energy=-3.3548264034627286 pbc="F F F"
Cl       0.00000000       0.00000000       0.00000000       0.00000000       0.00000000      -2.06583118
Cl       0.00000000       0.00000000       1.88484848       0.00000000       0.00000000       2.06583118
2
Properties=species:S:1:pos:R:3:forces:R:3 energy=-3.4328393933109727 pbc="F F F"
Cl       0.00000000       0.00000000       0.00000000       0.00000000       0.00000000      -0.61655670
Cl       0.00000000       0.00000000       1.94363636       0.00000000       0.00000000       0.61655670
2
Properties=species:S:1:pos:R:3:forces:R:3 energy=-3.430749777999731 pbc="F F F"
Cl       0.00000000       0.00000000       0.00000000       0.00000000       0.00000000       0.65796965
Cl       0.00000000       0.00000000       2.00242424       0.00000000       0.00000000      -0.65796965
2
Properties=species:S:1:pos:R:3:forces:R:3 energy=-3.358978056001121 pbc="F F F"
Cl       0.00000000       0.00000000       0.00000000       0.00000000       0.00000000       1.75372028
Cl       0.00000000       0.00000000       2.06121212       0.00000000       0.00000000      -1.75372028
2
Properties=species:S:1:pos:R:3:forces:R:3 energy=-3.2282627381579156 pbc="F F F"
Cl       0.00000000       0.00000000       0.00000000       0.00000000       0.00000000       2.65907001
Cl       0.00000000       0.00000000       2.12000000       0.00000000       0.00000000      -2.65907001
2
Properties=species:S:1:pos:R:3:forces:R:3 energy=-3.0508615321632777 pbc="F F F"
Cl       0.00000000       0.00000000       0.00000000       0.00000000       0.00000000       3.33263826
Cl       0.00000000       0.00000000       2.17878788       0.00000000       0.00000000      -3.33263826
2
Properties=species:S:1:pos:R:3:forces:R:3 energy=-2.8421483684060704 pbc="F F F"
Cl       0.00000000       0.00000000       0.00000000       0.00000000       0.00000000       3.71503758
Cl       0.00000000       0.00000000       2.23757576       0.00000000       0.00000000      -3.71503758
2
Properties=species:S:1:pos:R:3:forces:R:3 energy=-2.620478689473925 pbc="F F F"
Cl       0.00000000       0.00000000       0.00000000       0.00000000       0.00000000       3.77264261
Cl       0.00000000       0.00000000       2.29636364       0.00000000       0.00000000      -3.77264261
2
Properties=species:S:1:pos:R:3:forces:R:3 energy=-2.404314057068994 pbc="F F F"
Cl       0.00000000       0.00000000       0.00000000       0.00000000       0.00000000       3.53989601
Cl       0.00000000       0.00000000       2.35515152       0.00000000       0.00000000      -3.53989601
2
Properties=species:S:1:pos:R:3:forces:R:3 energy=-2.207940548641224 pbc="F F F"
Cl       0.00000000       0.00000000       0.00000000       0.00000000       0.00000000       3.12075210
Cl       0.00000000       0.00000000       2.41393939       0.00000000       0.00000000      -3.12075210
2
Properties=species:S:1:pos:R:3:forces:R:3 energy=-2.038488421955587 pbc="F F F"
Cl       0.00000000       0.00000000       0.00000000       0.00000000       0.00000000       2.64451838
Cl       0.00000000       0.00000000       2.47272727       0.00000000       0.00000000      -2.64451838
2
Properties=species:S:1:pos:R:3:forces:R:3 energy=-1.8961223057620247 pbc="F F F"
Cl       0.00000000       0.00000000       0.00000000       0.00000000       0.00000000       2.21155453
Cl       0.00000000       0.00000000       2.53151515       0.00000000       0.00000000      -2.21155453
2
Properties=species:S:1:pos:R:3:forces:R:3 energy=-1.776697403633266 pbc="F F F"
Cl       0.00000000       0.00000000       0.00000000       0.00000000       0.00000000       1.86713135
Cl       0.00000000       0.00000000       2.59030303       0.00000000       0.00000000      -1.86713135
2
Properties=species:S:1:pos:R:3:forces:R:3 energy=-1.6748468082217138 pbc="F F F"
Cl       0.00000000       0.00000000       0.00000000       0.00000000       0.00000000       1.61116600
Cl       0.00000000       0.00000000       2.64909091       0.00000000       0.00000000      -1.61116600
2
Properties=species:S:1:pos:R:3:forces:R:3 energy=-1.5859228583940554 pbc="F F F"
Cl       0.00000000       0.00000000       0.00000000       0.00000000       0.00000000       1.42362666
Cl       0.00000000       0.00000000       2.70787879       0.00000000       0.00000000      -1.42362666
2
Properties=species:S:1:pos:R:3:forces:R:3 energy=-1.5065296083017297 pbc="F F F"
Cl       0.00000000       0.00000000       0.00000000       0.00000000       0.00000000       1.28398550
Cl       0.00000000       0.00000000       2.76666667       0.00000000       0.00000000      -1.28398550
2
Properties=species:S:1:pos:R:3:forces:R:3 energy=-1.434305147619838 pbc="F F F"
Cl       0.00000000       0.00000000       0.00000000       0.00000000       0.00000000       1.17778313
Cl       0.00000000       0.00000000       2.82545455       0.00000000       0.00000000      -1.17778313
2
Properties=species:S:1:pos:R:3:forces:R:3 energy=-1.3675955142852407 pbc="F F F"
Cl       0.00000000       0.00000000       0.00000000       0.00000000       0.00000000       1.09482503
Cl       0.00000000       0.00000000       2.88424242       0.00000000       0.00000000      -1.09482503
2
Properties=species:S:1:pos:R:3:forces:R:3 energy=-1.3052959333361487 pbc="F F F"
Cl       0.00000000       0.00000000       0.00000000       0.00000000       0.00000000       1.02637589
Cl       0.00000000       0.00000000       2.94303030       0.00000000       0.00000000      -1.02637589
2
Properties=species:S:1:pos:R:3:forces:R:3 energy=-1.2467904140560917 pbc="F F F"
Cl       0.00000000       0.00000000       0.00000000       0.00000000       0.00000000       0.96454096
Cl       0.00000000       0.00000000       3.00181818       0.00000000       0.00000000      -0.96454096
2
Properties=species:S:1:pos:R:3:forces:R:3 energy=-1.1918838480363576 pbc="F F F"
Cl       0.00000000       0.00000000       0.00000000       0.00000000       0.00000000       0.90309083
Cl       0.00000000       0.00000000       3.06060606       0.00000000       0.00000000      -0.90309083
2
Properties=species:S:1:pos:R:3:forces:R:3 energy=-1.1406766551124692 pbc="F F F"
Cl       0.00000000       0.00000000       0.00000000       0.00000000       0.00000000       0.83827704
Cl       0.00000000       0.00000000       3.11939394       0.00000000       0.00000000      -0.83827704
2
Properties=species:S:1:pos:R:3:forces:R:3 energy=-1.093411341505717 pbc="F F F"
Cl       0.00000000       0.00000000       0.00000000       0.00000000       0.00000000       0.76899910
Cl       0.00000000       0.00000000       3.17818182       0.00000000       0.00000000      -0.76899910
2
Properties=species:S:1:pos:R:3:forces:R:3 energy=-1.0503271285983418 pbc="F F F"
Cl       0.00000000       0.00000000       0.00000000       0.00000000       0.00000000       0.69637209
Cl       0.00000000       0.00000000       3.23696970       0.00000000       0.00000000      -0.69637209
2
Properties=species:S:1:pos:R:3:forces:R:3 energy=-1.0115513671099963 pbc="F F F"
Cl       0.00000000       0.00000000       0.00000000       0.00000000       0.00000000       0.62293231
Cl       0.00000000       0.00000000       3.29575758       0.00000000       0.00000000      -0.62293231
2
Properties=species:S:1:pos:R:3:forces:R:3 energy=-0.9770404568074585 pbc="F F F"
Cl       0.00000000       0.00000000       0.00000000       0.00000000       0.00000000       0.55177802
Cl       0.00000000       0.00000000       3.35454545       0.00000000       0.00000000      -0.55177802
2
Properties=species:S:1:pos:R:3:forces:R:3 energy=-0.9465732899937076 pbc="F F F"
Cl       0.00000000       0.00000000       0.00000000       0.00000000       0.00000000       0.48580536
Cl       0.00000000       0.00000000       3.41333333       0.00000000       0.00000000      -0.48580536
2
Properties=species:S:1:pos:R:3:forces:R:3 energy=-0.9197774680481579 pbc="F F F"
Cl       0.00000000       0.00000000       0.00000000       0.00000000       0.00000000       0.42716795
Cl       0.00000000       0.00000000       3.47212121       0.00000000       0.00000000      -0.42716795
2
Properties=species:S:1:pos:R:3:forces:R:3 energy=-0.8961816109620651 pbc="F F F"
Cl       0.00000000       0.00000000       0.00000000       0.00000000       0.00000000       0.37703338
Cl       0.00000000       0.00000000       3.53090909       0.00000000       0.00000000      -0.37703338
2
Properties=species:S:1:pos:R:3:forces:R:3 energy=-0.8752762853727987 pbc="F F F"
Cl       0.00000000       0.00000000       0.00000000       0.00000000       0.00000000       0.33559483
Cl       0.00000000       0.00000000       3.58969697       0.00000000       0.00000000      -0.33559483
2
Properties=species:S:1:pos:R:3:forces:R:3 energy=-0.8565648176474849 pbc="F F F"
Cl       0.00000000       0.00000000       0.00000000       0.00000000       0.00000000       0.30224827
Cl       0.00000000       0.00000000       3.64848485       0.00000000       0.00000000      -0.30224827
2
Properties=species:S:1:pos:R:3:forces:R:3 energy=-0.839603269008741 pbc="F F F"
Cl       0.00000000       0.00000000       0.00000000       0.00000000       0.00000000       0.27583361
Cl       0.00000000       0.00000000       3.70727273       0.00000000       0.00000000      -0.27583361
2
Properties=species:S:1:pos:R:3:forces:R:3 energy=-0.8240263713066917 pbc="F F F"
Cl       0.00000000       0.00000000       0.00000000       0.00000000       0.00000000       0.25488603
Cl       0.00000000       0.00000000       3.76606061       0.00000000       0.00000000      -0.25488603
2
Properties=species:S:1:pos:R:3:forces:R:3 energy=-0.8095581233904737 pbc="F F F"
Cl       0.00000000       0.00000000       0.00000000       0.00000000       0.00000000       0.23786172
Cl       0.00000000       0.00000000       3.82484848       0.00000000       0.00000000      -0.23786172
2
Properties=species:S:1:pos:R:3:forces:R:3 energy=-0.7960107544865688 pbc="F F F"
Cl       0.00000000       0.00000000       0.00000000       0.00000000       0.00000000       0.22332877
Cl       0.00000000       0.00000000       3.88363636       0.00000000       0.00000000      -0.22332877
2
Properties=species:S:1:pos:R:3:forces:R:3 energy=-0.7832739024959655 pbc="F F F"
Cl       0.00000000       0.00000000       0.00000000       0.00000000       0.00000000       0.21013941
Cl       0.00000000       0.00000000       3.94242424       0.00000000       0.00000000      -0.21013941
2
Properties=species:S:1:pos:R:3:forces:R:3 energy=-0.7712921131567487 pbc="F F F"
Cl       0.00000000       0.00000000       0.00000000       0.00000000       0.00000000       0.19755751
Cl       0.00000000       0.00000000       4.00121212       0.00000000       0.00000000      -0.19755751
2
Properties=species:S:1:pos:R:3:forces:R:3 energy=-0.7600392237180695 pbc="F F F"
Cl       0.00000000       0.00000000       0.00000000       0.00000000       0.00000000       0.18533108
Cl       0.00000000       0.00000000       4.06000000       0.00000000       0.00000000      -0.18533108
2
Properties=species:S:1:pos:R:3:forces:R:3 energy=-0.7494906069745686 pbc="F F F"
Cl       0.00000000       0.00000000       0.00000000       0.00000000       0.00000000       0.17367762
Cl       0.00000000       0.00000000       4.11878788       0.00000000       0.00000000      -0.17367762
2
Properties=species:S:1:pos:R:3:forces:R:3 energy=-0.7395968634432749 pbc="F F F"
Cl       0.00000000       0.00000000       0.00000000       0.00000000       0.00000000       0.16315641
Cl       0.00000000       0.00000000       4.17757576       0.00000000       0.00000000      -0.16315641
2
Properties=species:S:1:pos:R:3:forces:R:3 energy=-0.730271557061982 pbc="F F F"
Cl       0.00000000       0.00000000       0.00000000       0.00000000       0.00000000       0.15445800
Cl       0.00000000       0.00000000       4.23636364       0.00000000       0.00000000      -0.15445800
2
Properties=species:S:1:pos:R:3:forces:R:3 energy=-0.7213890636703674 pbc="F F F"
Cl       0.00000000       0.00000000       0.00000000       0.00000000       0.00000000       0.14815830
Cl       0.00000000       0.00000000       4.29515152       0.00000000       0.00000000      -0.14815830
2
Properties=species:S:1:pos:R:3:forces:R:3 energy=-0.7127993480021847 pbc="F F F"
Cl       0.00000000       0.00000000       0.00000000       0.00000000       0.00000000       0.14452603
Cl       0.00000000       0.00000000       4.35393939       0.00000000       0.00000000      -0.14452603
2
Properties=species:S:1:pos:R:3:forces:R:3 energy=-0.7043462027065641 pbc="F F F"
Cl       0.00000000       0.00000000       0.00000000       0.00000000       0.00000000       0.14344533
Cl       0.00000000       0.00000000       4.41272727       0.00000000       0.00000000      -0.14344533
2
Properties=species:S:1:pos:R:3:forces:R:3 energy=-0.6958920102021485 pbc="F F F"
Cl       0.00000000       0.00000000       0.00000000       0.00000000       0.00000000       0.14446914
Cl       0.00000000       0.00000000       4.47151515       0.00000000       0.00000000      -0.14446914
2
Properties=species:S:1:pos:R:3:forces:R:3 energy=-0.6873313244085661 pbc="F F F"
Cl       0.00000000       0.00000000       0.00000000       0.00000000       0.00000000       0.14695874
Cl       0.00000000       0.00000000       4.53030303       0.00000000       0.00000000      -0.14695874
2
Properties=species:S:1:pos:R:3:forces:R:3 energy=-0.6785980032969366 pbc="F F F"
Cl       0.00000000       0.00000000       0.00000000       0.00000000       0.00000000       0.15023200
Cl       0.00000000       0.00000000       4.58909091       0.00000000       0.00000000      -0.15023200
2
Properties=species:S:1:pos:R:3:forces:R:3 energy=-0.6696646453136001 pbc="F F F"
Cl       0.00000000       0.00000000       0.00000000       0.00000000       0.00000000       0.15367214
Cl       0.00000000       0.00000000       4.64787879       0.00000000       0.00000000      -0.15367214
2
Properties=species:S:1:pos:R:3:forces:R:3 energy=-0.6605363393959468 pbc="F F F"
Cl       0.00000000       0.00000000       0.00000000       0.00000000       0.00000000       0.15678655
Cl       0.00000000       0.00000000       4.70666667       0.00000000       0.00000000      -0.15678655
2
Properties=species:S:1:pos:R:3:forces:R:3 energy=-0.6512432302309311 pbc="F F F"
Cl       0.00000000       0.00000000       0.00000000       0.00000000       0.00000000       0.15923864
Cl       0.00000000       0.00000000       4.76545455       0.00000000       0.00000000      -0.15923864
2
Properties=species:S:1:pos:R:3:forces:R:3 energy=-0.6418297646604111 pbc="F F F"
Cl       0.00000000       0.00000000       0.00000000       0.00000000       0.00000000       0.16086496
Cl       0.00000000       0.00000000       4.82424242       0.00000000       0.00000000      -0.16086496
2
Properties=species:S:1:pos:R:3:forces:R:3 energy=-0.6323462658354557 pbc="F F F"
Cl       0.00000000       0.00000000       0.00000000       0.00000000       0.00000000       0.16167045
Cl       0.00000000       0.00000000       4.88303030       0.00000000       0.00000000      -0.16167045
2
Properties=species:S:1:pos:R:3:forces:R:3 energy=-0.6228346833504885 pbc="F F F"
Cl       0.00000000       0.00000000       0.00000000       0.00000000       0.00000000       0.16179794
Cl       0.00000000       0.00000000       4.94181818       0.00000000       0.00000000      -0.16179794
2
Properties=species:S:1:pos:R:3:forces:R:3 energy=-0.6133314374271904 pbc="F F F"
Cl       0.00000000       0.00000000       0.00000000       0.00000000       0.00000000       0.16142461
Cl       0.00000000       0.00000000       5.00060606       0.00000000       0.00000000      -0.16142461
2
Properties=species:S:1:pos:R:3:forces:R:3 energy=-0.6038624212318282 pbc="F F F"
Cl       0.00000000       0.00000000       0.00000000       0.00000000       0.00000000       0.16064852
Cl       0.00000000       0.00000000       5.05939394       0.00000000       0.00000000      -0.16064852
2
Properties=species:S:1:pos:R:3:forces:R:3 energy=-0.5944525368264619 pbc="F F F"
Cl       0.00000000       0.00000000       0.00000000       0.00000000       0.00000000       0.15937944
Cl       0.00000000       0.00000000       5.11818182       0.00000000       0.00000000      -0.15937944
2
Properties=species:S:1:pos:R:3:forces:R:3 energy=-0.5851397812680238 pbc="F F F"
Cl       0.00000000       0.00000000       0.00000000       0.00000000       0.00000000       0.15729335
Cl       0.00000000       0.00000000       5.17696970       0.00000000       0.00000000      -0.15729335
2
Properties=species:S:1:pos:R:3:forces:R:3 energy=-0.5759859166316872 pbc="F F F"
Cl       0.00000000       0.00000000       0.00000000       0.00000000       0.00000000       0.15386733
Cl       0.00000000       0.00000000       5.23575758       0.00000000       0.00000000      -0.15386733
2
Properties=species:S:1:pos:R:3:forces:R:3 energy=-0.5670872061725162 pbc="F F F"
Cl       0.00000000       0.00000000       0.00000000       0.00000000       0.00000000       0.14851023
Cl       0.00000000       0.00000000       5.29454545       0.00000000       0.00000000      -0.14851023
2
Properties=species:S:1:pos:R:3:forces:R:3 energy=-0.5585723897474311 pbc="F F F"
Cl       0.00000000       0.00000000       0.00000000       0.00000000       0.00000000       0.14070857
Cl       0.00000000       0.00000000       5.35333333       0.00000000       0.00000000      -0.14070857
2
Properties=species:S:1:pos:R:3:forces:R:3 energy=-0.5505955884866139 pbc="F F F"
Cl       0.00000000       0.00000000       0.00000000       0.00000000       0.00000000       0.13019539
Cl       0.00000000       0.00000000       5.41212121       0.00000000       0.00000000      -0.13019539
2
Properties=species:S:1:pos:R:3:forces:R:3 energy=-0.5433165190212766 pbc="F F F"
Cl       0.00000000       0.00000000       0.00000000       0.00000000       0.00000000       0.11703942
Cl       0.00000000       0.00000000       5.47090909       0.00000000       0.00000000      -0.11703942
2
Properties=species:S:1:pos:R:3:forces:R:3 energy=-0.5368784395671045 pbc="F F F"
Cl       0.00000000       0.00000000       0.00000000       0.00000000       0.00000000       0.10164990
Cl       0.00000000       0.00000000       5.52969697       0.00000000       0.00000000      -0.10164990
2
Properties=species:S:1:pos:R:3:forces:R:3 energy=-0.5313944968968033 pbc="F F F"
Cl       0.00000000       0.00000000       0.00000000       0.00000000       0.00000000       0.08474025
Cl       0.00000000       0.00000000       5.58848485       0.00000000       0.00000000      -0.08474025
2
Properties=species:S:1:pos:R:3:forces:R:3 energy=-0.5269272257081075 pbc="F F F"
Cl       0.00000000       0.00000000       0.00000000       0.00000000       0.00000000       0.06721378
Cl       0.00000000       0.00000000       5.64727273       0.00000000       0.00000000      -0.06721378
2
Properties=species:S:1:pos:R:3:forces:R:3 energy=-0.523485082842872 pbc="F F F"
Cl       0.00000000       0.00000000       0.00000000       0.00000000       0.00000000       0.05008155
Cl       0.00000000       0.00000000       5.70606061       0.00000000       0.00000000      -0.05008155
2
Properties=species:S:1:pos:R:3:forces:R:3 energy=-0.5210088586159972 pbc="F F F"
Cl       0.00000000       0.00000000       0.00000000       0.00000000       0.00000000       0.03432320
Cl       0.00000000       0.00000000       5.76484848       0.00000000       0.00000000      -0.03432320
2
Properties=species:S:1:pos:R:3:forces:R:3 energy=-0.5194028542024126 pbc="F F F"
Cl       0.00000000       0.00000000       0.00000000       0.00000000       0.00000000       0.02084973
Cl       0.00000000       0.00000000       5.82363636       0.00000000       0.00000000      -0.02084973
2
Properties=species:S:1:pos:R:3:forces:R:3 energy=-0.5185010692714178 pbc="F F F"
Cl       0.00000000       0.00000000       0.00000000       0.00000000       0.00000000       0.01045968
Cl       0.00000000       0.00000000       5.88242424       0.00000000       0.00000000      -0.01045968
2
Properties=species:S:1:pos:R:3:forces:R:3 energy=-0.5180995774062281 pbc="F F F"
Cl       0.00000000       0.00000000       0.00000000       0.00000000       0.00000000       0.00380472
Cl       0.00000000       0.00000000       5.94121212       0.00000000       0.00000000      -0.00380472
2
Properties=species:S:1:pos:R:3:forces:R:3 energy=-0.5179685592136144 pbc="F F F"
Cl       0.00000000       0.00000000       0.00000000       0.00000000       0.00000000       0.00142215
Cl       0.00000000       0.00000000       6.00000000       0.00000000       0.00000000      -0.00142215
