2
Properties=species:S:1:pos:R:3:forces:R:3 energy=10377.10015808425 pbc="F F F"
Cs       0.00000000       0.00000000       0.00000000       0.00000000       0.00000000 -175504.98437500
Cs       0.00000000       0.00000000       0.18000000       0.00000000       0.00000000  175504.98437500
2
Properties=species:S:1:pos:R:3:forces:R:3 energy=4168.44879089675 pbc="F F F"
Cs       0.00000000       0.00000000       0.00000000       0.00000000       0.00000000  -59788.74609375
Cs       0.00000000       0.00000000       0.23878788       0.00000000       0.00000000   59788.74609375
2
Properties=species:S:1:pos:R:3:forces:R:3 energy=1887.2904657014376 pbc="F F F"
Cs       0.00000000       0.00000000       0.00000000       0.00000000       0.00000000  -23996.17578125
Cs       0.00000000       0.00000000       0.29757576       0.00000000       0.00000000   23996.17578125
2
Properties=species:S:1:pos:R:3:forces:R:3 energy=927.5739129670626 pbc="F F F"
Cs       0.00000000       0.00000000       0.00000000       0.00000000       0.00000000  -10660.55175781
Cs       0.00000000       0.00000000       0.35636364       0.00000000       0.00000000   10660.55175781
2
Properties=species:S:1:pos:R:3:forces:R:3 energy=487.1050408967501 pbc="F F F"
Cs       0.00000000       0.00000000       0.00000000       0.00000000       0.00000000   -5082.86523438
Cs       0.00000000       0.00000000       0.41515152       0.00000000       0.00000000    5082.86523438
2
Properties=species:S:1:pos:R:3:forces:R:3 energy=271.70837341628135 pbc="F F F"
Cs       0.00000000       0.00000000       0.00000000       0.00000000       0.00000000   -2561.51049805
Cs       0.00000000       0.00000000       0.47393939       0.00000000       0.00000000    2561.51049805
2
Properties=species:S:1:pos:R:3:forces:R:3 energy=160.79814087312798 pbc="F F F"
Cs       0.00000000       0.00000000       0.00000000       0.00000000       0.00000000   -1353.18420410
Cs       0.00000000       0.00000000       0.53272727       0.00000000       0.00000000    1353.18420410
2
Properties=species:S:1:pos:R:3:forces:R:3 energy=101.07971130849023 pbc="F F F"
Cs       0.00000000       0.00000000       0.00000000       0.00000000       0.00000000    -745.15588379
Cs       0.00000000       0.00000000       0.59151515       0.00000000       0.00000000     745.15588379
2
Properties=species:S:1:pos:R:3:forces:R:3 energy=67.63487946192961 pbc="F F F"
Cs       0.00000000       0.00000000       0.00000000       0.00000000       0.00000000    -425.53591919
Cs       0.00000000       0.00000000       0.65030303       0.00000000       0.00000000     425.53591919
2
Properties=species:S:1:pos:R:3:forces:R:3 energy=48.25678574561501 pbc="F F F"
Cs       0.00000000       0.00000000       0.00000000       0.00000000       0.00000000    -250.60433960
Cs       0.00000000       0.00000000       0.70909091       0.00000000       0.00000000     250.60433960
2
Properties=species:S:1:pos:R:3:forces:R:3 energy=36.71056306280722 pbc="F F F"
Cs       0.00000000       0.00000000       0.00000000       0.00000000       0.00000000    -151.21722412
Cs       0.00000000       0.00000000       0.76787879       0.00000000       0.00000000     151.21722412
2
Properties=species:S:1:pos:R:3:forces:R:3 energy=29.684516317005126 pbc="F F F"
Cs       0.00000000       0.00000000       0.00000000       0.00000000       0.00000000     -92.80756378
Cs       0.00000000       0.00000000       0.82666667       0.00000000       0.00000000      92.80756378
2
Properties=species:S:1:pos:R:3:forces:R:3 energy=25.351548566745972 pbc="F F F"
Cs       0.00000000       0.00000000       0.00000000       0.00000000       0.00000000     -57.47612762
Cs       0.00000000       0.00000000       0.88545455       0.00000000       0.00000000      57.47612762
2
Properties=species:S:1:pos:R:3:forces:R:3 energy=22.664559748850852 pbc="F F F"
Cs       0.00000000       0.00000000       0.00000000       0.00000000       0.00000000     -35.65834808
Cs       0.00000000       0.00000000       0.94424242       0.00000000       0.00000000      35.65834808
2
Properties=species:S:1:pos:R:3:forces:R:3 energy=20.998414441566844 pbc="F F F"
Cs       0.00000000       0.00000000       0.00000000       0.00000000       0.00000000     -22.10781860
Cs       0.00000000       0.00000000       1.00303030       0.00000000       0.00000000      22.10781860
2
Properties=species:S:1:pos:R:3:forces:R:3 energy=19.96152634197496 pbc="F F F"
Cs       0.00000000       0.00000000       0.00000000       0.00000000       0.00000000     -13.89066124
Cs       0.00000000       0.00000000       1.06181818       0.00000000       0.00000000      13.89066124
2
Properties=species:S:1:pos:R:3:forces:R:3 energy=19.29379031939443 pbc="F F F"
Cs       0.00000000       0.00000000       0.00000000       0.00000000       0.00000000      -9.34047318
Cs       0.00000000       0.00000000       1.12060606       0.00000000       0.00000000       9.34047318
2
Properties=species:S:1:pos:R:3:forces:R:3 energy=18.81077911326467 pbc="F F F"
Cs       0.00000000       0.00000000       0.00000000       0.00000000       0.00000000      -7.48138142
Cs       0.00000000       0.00000000       1.17939394       0.00000000       0.00000000       7.48138142
2
Properties=species:S:1:pos:R:3:forces:R:3 energy=18.373874258307172 pbc="F F F"
Cs       0.00000000       0.00000000       0.00000000       0.00000000       0.00000000      -7.68213844
Cs       0.00000000       0.00000000       1.23818182       0.00000000       0.00000000       7.68213844
2
Properties=species:S:1:pos:R:3:forces:R:3 energy=17.877137796758266 pbc="F F F"
Cs       0.00000000       0.00000000       0.00000000       0.00000000       0.00000000      -9.43335724
Cs       0.00000000       0.00000000       1.29696970       0.00000000       0.00000000       9.43335724
2
Properties=species:S:1:pos:R:3:forces:R:3 energy=17.2446477226245 pbc="F F F"
Cs       0.00000000       0.00000000       0.00000000       0.00000000       0.00000000     -12.20755672
Cs       0.00000000       0.00000000       1.35575758       0.00000000       0.00000000      12.20755672
2
Properties=species:S:1:pos:R:3:forces:R:3 energy=16.43352684101611 pbc="F F F"
Cs       0.00000000       0.00000000       0.00000000       0.00000000       0.00000000     -15.40467358
Cs       0.00000000       0.00000000       1.41454545       0.00000000       0.00000000      15.40467358
2
Properties=species:S:1:pos:R:3:forces:R:3 energy=15.437399841503787 pbc="F F F"
Cs       0.00000000       0.00000000       0.00000000       0.00000000       0.00000000     -18.40327644
Cs       0.00000000       0.00000000       1.47333333       0.00000000       0.00000000      18.40327644
2
Properties=species:S:1:pos:R:3:forces:R:3 energy=14.283620971632613 pbc="F F F"
Cs       0.00000000       0.00000000       0.00000000       0.00000000       0.00000000     -20.70395279
Cs       0.00000000       0.00000000       1.53212121       0.00000000       0.00000000      20.70395279
2
Properties=species:S:1:pos:R:3:forces:R:3 energy=13.021448467479066 pbc="F F F"
Cs       0.00000000       0.00000000       0.00000000       0.00000000       0.00000000     -22.08063889
Cs       0.00000000       0.00000000       1.59090909       0.00000000       0.00000000      22.08063889
2
Properties=species:S:1:pos:R:3:forces:R:3 energy=11.703970525134087 pbc="F F F"
Cs       0.00000000       0.00000000       0.00000000       0.00000000       0.00000000     -22.62230110
Cs       0.00000000       0.00000000       1.64969697       0.00000000       0.00000000      22.62230110
2
Properties=species:S:1:pos:R:3:forces:R:3 energy=10.372187515560347 pbc="F F F"
Cs       0.00000000       0.00000000       0.00000000       0.00000000       0.00000000     -22.62384605
Cs       0.00000000       0.00000000       1.70848485       0.00000000       0.00000000      22.62384605
2
Properties=species:S:1:pos:R:3:forces:R:3 energy=9.04838300233846 pbc="F F F"
Cs       0.00000000       0.00000000       0.00000000       0.00000000       0.00000000     -22.39335442
Cs       0.00000000       0.00000000       1.76727273       0.00000000       0.00000000      22.39335442
2
Properties=species:S:1:pos:R:3:forces:R:3 energy=7.740861590919156 pbc="F F F"
Cs       0.00000000       0.00000000       0.00000000       0.00000000       0.00000000     -22.07303047
Cs       0.00000000       0.00000000       1.82606061       0.00000000       0.00000000      22.07303047
2
Properties=species:S:1:pos:R:3:forces:R:3 energy=6.457037630194895 pbc="F F F"
Cs       0.00000000       0.00000000       0.00000000       0.00000000       0.00000000     -21.54615402
Cs       0.00000000       0.00000000       1.88484848       0.00000000       0.00000000      21.54615402
2
Properties=species:S:1:pos:R:3:forces:R:3 energy=5.217971601187233 pbc="F F F"
Cs       0.00000000       0.00000000       0.00000000       0.00000000       0.00000000     -20.48730087
Cs       0.00000000       0.00000000       1.94363636       0.00000000       0.00000000      20.48730087
2
Properties=species:S:1:pos:R:3:forces:R:3 energy=4.065202228762184 pbc="F F F"
Cs       0.00000000       0.00000000       0.00000000       0.00000000       0.00000000     -18.57164955
Cs       0.00000000       0.00000000       2.00242424       0.00000000       0.00000000      18.57164955
2
Properties=species:S:1:pos:R:3:forces:R:3 energy=3.0524926815115925 pbc="F F F"
Cs       0.00000000       0.00000000       0.00000000       0.00000000       0.00000000     -15.74741364
Cs       0.00000000       0.00000000       2.06121212       0.00000000       0.00000000      15.74741364
2
Properties=species:S:1:pos:R:3:forces:R:3 energy=2.224813961334044 pbc="F F F"
Cs       0.00000000       0.00000000       0.00000000       0.00000000       0.00000000     -12.36450195
Cs       0.00000000       0.00000000       2.12000000       0.00000000       0.00000000      12.36450195
2
Properties=species:S:1:pos:R:3:forces:R:3 energy=1.5978475924397173 pbc="F F F"
Cs       0.00000000       0.00000000       0.00000000       0.00000000       0.00000000      -9.02384090
Cs       0.00000000       0.00000000       2.17878788       0.00000000       0.00000000       9.02384090
2
Properties=species:S:1:pos:R:3:forces:R:3 energy=1.1521534213166738 pbc="F F F"
Cs       0.00000000       0.00000000       0.00000000       0.00000000       0.00000000      -6.26898813
Cs       0.00000000       0.00000000       2.23757576       0.00000000       0.00000000       6.26898813
2
Properties=species:S:1:pos:R:3:forces:R:3 energy=0.8437527162661267 pbc="F F F"
Cs       0.00000000       0.00000000       0.00000000       0.00000000       0.00000000      -4.37248468
Cs       0.00000000       0.00000000       2.29636364       0.00000000       0.00000000       4.37248468
2
Properties=species:S:1:pos:R:3:forces:R:3 energy=0.6213565982871905 pbc="F F F"
Cs       0.00000000       0.00000000       0.00000000       0.00000000       0.00000000      -3.32208490
Cs       0.00000000       0.00000000       2.35515152       0.00000000       0.00000000       3.32208490
2
Properties=species:S:1:pos:R:3:forces:R:3 energy=0.44034583050396703 pbc="F F F"
Cs       0.00000000       0.00000000       0.00000000       0.00000000       0.00000000      -2.92314386
Cs       0.00000000       0.00000000       2.41393939       0.00000000       0.00000000       2.92314386
2
Properties=species:S:1:pos:R:3:forces:R:3 energy=0.2700753109459473 pbc="F F F"
Cs       0.00000000       0.00000000       0.00000000       0.00000000       0.00000000      -2.91243482
Cs       0.00000000       0.00000000       2.47272727       0.00000000       0.00000000       2.91243482
2
Properties=species:S:1:pos:R:3:forces:R:3 energy=0.09507453197655497 pbc="F F F"
Cs       0.00000000       0.00000000       0.00000000       0.00000000       0.00000000      -3.04970050
Cs       0.00000000       0.00000000       2.53151515       0.00000000       0.00000000       3.04970050
2
Properties=species:S:1:pos:R:3:forces:R:3 energy=-0.08823340114404907 pbc="F F F"
Cs       0.00000000       0.00000000       0.00000000       0.00000000       0.00000000      -3.17674565
Cs       0.00000000       0.00000000       2.59030303       0.00000000       0.00000000       3.17674565
2
Properties=species:S:1:pos:R:3:forces:R:3 energy=-0.2768443826409636 pbc="F F F"
Cs       0.00000000       0.00000000       0.00000000       0.00000000       0.00000000      -3.22456932
Cs       0.00000000       0.00000000       2.64909091       0.00000000       0.00000000       3.22456932
2
Properties=species:S:1:pos:R:3:forces:R:3 energy=-0.4655799793990596 pbc="F F F"
Cs       0.00000000       0.00000000       0.00000000       0.00000000       0.00000000      -3.18206310
Cs       0.00000000       0.00000000       2.70787879       0.00000000       0.00000000       3.18206310
2
Properties=species:S:1:pos:R:3:forces:R:3 energy=-0.6494623545673774 pbc="F F F"
Cs       0.00000000       0.00000000       0.00000000       0.00000000       0.00000000      -3.06230283
Cs       0.00000000       0.00000000       2.76666667       0.00000000       0.00000000       3.06230283
2
Properties=species:S:1:pos:R:3:forces:R:3 energy=-0.8244615325745869 pbc="F F F"
Cs       0.00000000       0.00000000       0.00000000       0.00000000       0.00000000      -2.88261580
Cs       0.00000000       0.00000000       2.82545455       0.00000000       0.00000000       2.88261580
2
Properties=species:S:1:pos:R:3:forces:R:3 energy=-0.987483744837023 pbc="F F F"
Cs       0.00000000       0.00000000       0.00000000       0.00000000       0.00000000      -2.65662503
Cs       0.00000000       0.00000000       2.88424242       0.00000000       0.00000000       2.65662503
2
Properties=species:S:1:pos:R:3:forces:R:3 energy=-1.136081744057477 pbc="F F F"
Cs       0.00000000       0.00000000       0.00000000       0.00000000       0.00000000      -2.39305139
Cs       0.00000000       0.00000000       2.94303030       0.00000000       0.00000000       2.39305139
2
Properties=species:S:1:pos:R:3:forces:R:3 energy=-1.2682170563443436 pbc="F F F"
Cs       0.00000000       0.00000000       0.00000000       0.00000000       0.00000000      -2.09719348
Cs       0.00000000       0.00000000       3.00181818       0.00000000       0.00000000       2.09719348
2
Properties=species:S:1:pos:R:3:forces:R:3 energy=-1.382102610694213 pbc="F F F"
Cs       0.00000000       0.00000000       0.00000000       0.00000000       0.00000000      -1.77284789
Cs       0.00000000       0.00000000       3.06060606       0.00000000       0.00000000       1.77284789
2
Properties=species:S:1:pos:R:3:forces:R:3 energy=-1.4761769365163286 pbc="F F F"
Cs       0.00000000       0.00000000       0.00000000       0.00000000       0.00000000      -1.42389202
Cs       0.00000000       0.00000000       3.11939394       0.00000000       0.00000000       1.42389202
2
Properties=species:S:1:pos:R:3:forces:R:3 energy=-1.5491389123485346 pbc="F F F"
Cs       0.00000000       0.00000000       0.00000000       0.00000000       0.00000000      -1.05566728
Cs       0.00000000       0.00000000       3.17818182       0.00000000       0.00000000       1.05566728
2
Properties=species:S:1:pos:R:3:forces:R:3 energy=-1.6000767495166155 pbc="F F F"
Cs       0.00000000       0.00000000       0.00000000       0.00000000       0.00000000      -0.67626774
Cs       0.00000000       0.00000000       3.23696970       0.00000000       0.00000000       0.67626774
2
Properties=species:S:1:pos:R:3:forces:R:3 energy=-1.6286634985369803 pbc="F F F"
Cs       0.00000000       0.00000000       0.00000000       0.00000000       0.00000000      -0.29763436
Cs       0.00000000       0.00000000       3.29575758       0.00000000       0.00000000       0.29763436
2
Properties=species:S:1:pos:R:3:forces:R:3 energy=-1.635401188157752 pbc="F F F"
Cs       0.00000000       0.00000000       0.00000000       0.00000000       0.00000000       0.06403521
Cs       0.00000000       0.00000000       3.35454545       0.00000000       0.00000000      -0.06403521
2
Properties=species:S:1:pos:R:3:forces:R:3 energy=-1.6218456524949492 pbc="F F F"
Cs       0.00000000       0.00000000       0.00000000       0.00000000       0.00000000       0.38944209
Cs       0.00000000       0.00000000       3.41333333       0.00000000       0.00000000      -0.38944209
2
Properties=species:S:1:pos:R:3:forces:R:3 energy=-1.5907042889855627 pbc="F F F"
Cs       0.00000000       0.00000000       0.00000000       0.00000000       0.00000000       0.65928638
Cs       0.00000000       0.00000000       3.47212121       0.00000000       0.00000000      -0.65928638
2
Properties=species:S:1:pos:R:3:forces:R:3 energy=-1.5457139880750543 pbc="F F F"
Cs       0.00000000       0.00000000       0.00000000       0.00000000       0.00000000       0.85876751
Cs       0.00000000       0.00000000       3.53090909       0.00000000       0.00000000      -0.85876751
2
Properties=species:S:1:pos:R:3:forces:R:3 energy=-1.4912444015339108 pbc="F F F"
Cs       0.00000000       0.00000000       0.00000000       0.00000000       0.00000000       0.98150063
Cs       0.00000000       0.00000000       3.58969697       0.00000000       0.00000000      -0.98150063
2
Properties=species:S:1:pos:R:3:forces:R:3 energy=-1.431758651511048 pbc="F F F"
Cs       0.00000000       0.00000000       0.00000000       0.00000000       0.00000000       1.03073072
Cs       0.00000000       0.00000000       3.64848485       0.00000000       0.00000000      -1.03073072
2
Properties=species:S:1:pos:R:3:forces:R:3 energy=-1.3712840452479849 pbc="F F F"
Cs       0.00000000       0.00000000       0.00000000       0.00000000       0.00000000       1.01742184
Cs       0.00000000       0.00000000       3.70727273       0.00000000       0.00000000      -1.01742184
2
Properties=species:S:1:pos:R:3:forces:R:3 energy=-1.3130634991966394 pbc="F F F"
Cs       0.00000000       0.00000000       0.00000000       0.00000000       0.00000000       0.95670325
Cs       0.00000000       0.00000000       3.76606061       0.00000000       0.00000000      -0.95670325
2
Properties=species:S:1:pos:R:3:forces:R:3 energy=-1.2594120316255553 pbc="F F F"
Cs       0.00000000       0.00000000       0.00000000       0.00000000       0.00000000       0.86465675
Cs       0.00000000       0.00000000       3.82484848       0.00000000       0.00000000      -0.86465675
2
Properties=species:S:1:pos:R:3:forces:R:3 energy=-1.211720095728275 pbc="F F F"
Cs       0.00000000       0.00000000       0.00000000       0.00000000       0.00000000       0.75625759
Cs       0.00000000       0.00000000       3.88363636       0.00000000       0.00000000      -0.75625759
2
Properties=species:S:1:pos:R:3:forces:R:3 energy=-1.1705623238379879 pbc="F F F"
Cs       0.00000000       0.00000000       0.00000000       0.00000000       0.00000000       0.64428568
Cs       0.00000000       0.00000000       3.94242424       0.00000000       0.00000000      -0.64428568
2
Properties=species:S:1:pos:R:3:forces:R:3 energy=-1.1358417659161533 pbc="F F F"
Cs       0.00000000       0.00000000       0.00000000       0.00000000       0.00000000       0.53866643
Cs       0.00000000       0.00000000       4.00121212       0.00000000       0.00000000      -0.53866643
2
Properties=species:S:1:pos:R:3:forces:R:3 energy=-1.106970397759457 pbc="F F F"
Cs       0.00000000       0.00000000       0.00000000       0.00000000       0.00000000       0.44609600
Cs       0.00000000       0.00000000       4.06000000       0.00000000       0.00000000      -0.44609600
2
Properties=species:S:1:pos:R:3:forces:R:3 energy=-1.0830665482143749 pbc="F F F"
Cs       0.00000000       0.00000000       0.00000000       0.00000000       0.00000000       0.37000501
Cs       0.00000000       0.00000000       4.11878788       0.00000000       0.00000000      -0.37000501
2
Properties=species:S:1:pos:R:3:forces:R:3 energy=-1.0631320655642436 pbc="F F F"
Cs       0.00000000       0.00000000       0.00000000       0.00000000       0.00000000       0.31091273
Cs       0.00000000       0.00000000       4.17757576       0.00000000       0.00000000      -0.31091273
2
Properties=species:S:1:pos:R:3:forces:R:3 energy=-1.0462080309959474 pbc="F F F"
Cs       0.00000000       0.00000000       0.00000000       0.00000000       0.00000000       0.26721913
Cs       0.00000000       0.00000000       4.23636364       0.00000000       0.00000000      -0.26721913
2
Properties=species:S:1:pos:R:3:forces:R:3 energy=-1.0314644617984137 pbc="F F F"
Cs       0.00000000       0.00000000       0.00000000       0.00000000       0.00000000       0.23622975
Cs       0.00000000       0.00000000       4.29515152       0.00000000       0.00000000      -0.23622975
2
Properties=species:S:1:pos:R:3:forces:R:3 energy=-1.0182381371373568 pbc="F F F"
Cs       0.00000000       0.00000000       0.00000000       0.00000000       0.00000000       0.21522589
Cs       0.00000000       0.00000000       4.35393939       0.00000000       0.00000000      -0.21522589
2
Properties=species:S:1:pos:R:3:forces:R:3 energy=-1.0060025808649962 pbc="F F F"
Cs       0.00000000       0.00000000       0.00000000       0.00000000       0.00000000       0.20227702
Cs       0.00000000       0.00000000       4.41272727       0.00000000       0.00000000      -0.20227702
2
Properties=species:S:1:pos:R:3:forces:R:3 energy=-0.9943116004583409 pbc="F F F"
Cs       0.00000000       0.00000000       0.00000000       0.00000000       0.00000000       0.19669612
Cs       0.00000000       0.00000000       4.47151515       0.00000000       0.00000000      -0.19669612
2
Properties=species:S:1:pos:R:3:forces:R:3 energy=-0.9827207108423706 pbc="F F F"
Cs       0.00000000       0.00000000       0.00000000       0.00000000       0.00000000       0.19905259
Cs       0.00000000       0.00000000       4.53030303       0.00000000       0.00000000      -0.19905259
2
Properties=species:S:1:pos:R:3:forces:R:3 energy=-0.9707230722362075 pbc="F F F"
Cs       0.00000000       0.00000000       0.00000000       0.00000000       0.00000000       0.21085508
Cs       0.00000000       0.00000000       4.58909091       0.00000000       0.00000000      -0.21085508
2
Properties=species:S:1:pos:R:3:forces:R:3 energy=-0.957707394562784 pbc="F F F"
Cs       0.00000000       0.00000000       0.00000000       0.00000000       0.00000000       0.23398247
Cs       0.00000000       0.00000000       4.64787879       0.00000000       0.00000000      -0.23398247
2
Properties=species:S:1:pos:R:3:forces:R:3 energy=-0.9429594211493927 pbc="F F F"
Cs       0.00000000       0.00000000       0.00000000       0.00000000       0.00000000       0.26996934
Cs       0.00000000       0.00000000       4.70666667       0.00000000       0.00000000      -0.26996934
2
Properties=species:S:1:pos:R:3:forces:R:3 energy=-0.9257027459101372 pbc="F F F"
Cs       0.00000000       0.00000000       0.00000000       0.00000000       0.00000000       0.31933039
Cs       0.00000000       0.00000000       4.76545455       0.00000000       0.00000000      -0.31933039
2
Properties=species:S:1:pos:R:3:forces:R:3 energy=-0.9051691064452018 pbc="F F F"
Cs       0.00000000       0.00000000       0.00000000       0.00000000       0.00000000       0.38107687
Cs       0.00000000       0.00000000       4.82424242       0.00000000       0.00000000      -0.38107687
2
Properties=species:S:1:pos:R:3:forces:R:3 energy=-0.8807076422428095 pbc="F F F"
Cs       0.00000000       0.00000000       0.00000000       0.00000000       0.00000000       0.45252663
Cs       0.00000000       0.00000000       4.88303030       0.00000000       0.00000000      -0.45252663
2
Properties=species:S:1:pos:R:3:forces:R:3 energy=-0.851852844534614 pbc="F F F"
Cs       0.00000000       0.00000000       0.00000000       0.00000000       0.00000000       0.52958530
Cs       0.00000000       0.00000000       4.94181818       0.00000000       0.00000000      -0.52958530
2
Properties=species:S:1:pos:R:3:forces:R:3 energy=-0.8184307340793969 pbc="F F F"
Cs       0.00000000       0.00000000       0.00000000       0.00000000       0.00000000       0.60709679
Cs       0.00000000       0.00000000       5.00060606       0.00000000       0.00000000      -0.60709679
2
Properties=species:S:1:pos:R:3:forces:R:3 energy=-0.7805723446529655 pbc="F F F"
Cs       0.00000000       0.00000000       0.00000000       0.00000000       0.00000000       0.67942059
Cs       0.00000000       0.00000000       5.05939394       0.00000000       0.00000000      -0.67942059
2
Properties=species:S:1:pos:R:3:forces:R:3 energy=-0.7387645149823501 pbc="F F F"
Cs       0.00000000       0.00000000       0.00000000       0.00000000       0.00000000       0.74068558
Cs       0.00000000       0.00000000       5.11818182       0.00000000       0.00000000      -0.74068558
2
Properties=species:S:1:pos:R:3:forces:R:3 energy=-0.6938186983114573 pbc="F F F"
Cs       0.00000000       0.00000000       0.00000000       0.00000000       0.00000000       0.78510499
Cs       0.00000000       0.00000000       5.17696970       0.00000000       0.00000000      -0.78510499
2
Properties=species:S:1:pos:R:3:forces:R:3 energy=-0.6468977345043817 pbc="F F F"
Cs       0.00000000       0.00000000       0.00000000       0.00000000       0.00000000       0.80708438
Cs       0.00000000       0.00000000       5.23575758       0.00000000       0.00000000      -0.80708438
2
Properties=species:S:1:pos:R:3:forces:R:3 energy=-0.5994642395287483 pbc="F F F"
Cs       0.00000000       0.00000000       0.00000000       0.00000000       0.00000000       0.80169451
Cs       0.00000000       0.00000000       5.29454545       0.00000000       0.00000000      -0.80169451
2
Properties=species:S:1:pos:R:3:forces:R:3 energy=-0.5532393259310777 pbc="F F F"
Cs       0.00000000       0.00000000       0.00000000       0.00000000       0.00000000       0.76557875
Cs       0.00000000       0.00000000       5.35333333       0.00000000       0.00000000      -0.76557875
2
Properties=species:S:1:pos:R:3:forces:R:3 energy=-0.5100660532767626 pbc="F F F"
Cs       0.00000000       0.00000000       0.00000000       0.00000000       0.00000000       0.69835073
Cs       0.00000000       0.00000000       5.41212121       0.00000000       0.00000000      -0.69835073
2
Properties=species:S:1:pos:R:3:forces:R:3 energy=-0.4716582827384635 pbc="F F F"
Cs       0.00000000       0.00000000       0.00000000       0.00000000       0.00000000       0.60429180
Cs       0.00000000       0.00000000       5.47090909       0.00000000       0.00000000      -0.60429180
2
Properties=species:S:1:pos:R:3:forces:R:3 energy=-0.43935174423969314 pbc="F F F"
Cs       0.00000000       0.00000000       0.00000000       0.00000000       0.00000000       0.49278635
Cs       0.00000000       0.00000000       5.52969697       0.00000000       0.00000000      -0.49278635
2
Properties=species:S:1:pos:R:3:forces:R:3 energy=-0.413817216188504 pbc="F F F"
Cs       0.00000000       0.00000000       0.00000000       0.00000000       0.00000000       0.37618443
Cs       0.00000000       0.00000000       5.58848485       0.00000000       0.00000000      -0.37618443
2
Properties=species:S:1:pos:R:3:forces:R:3 energy=-0.3950103387877863 pbc="F F F"
Cs       0.00000000       0.00000000       0.00000000       0.00000000       0.00000000       0.26604801
Cs       0.00000000       0.00000000       5.64727273       0.00000000       0.00000000      -0.26604801
2
Properties=species:S:1:pos:R:3:forces:R:3 energy=-0.38227311159969785 pbc="F F F"
Cs       0.00000000       0.00000000       0.00000000       0.00000000       0.00000000       0.16963992
Cs       0.00000000       0.00000000       5.70606061       0.00000000       0.00000000      -0.16963992
2
Properties=species:S:1:pos:R:3:forces:R:3 energy=-0.3746931745993922 pbc="F F F"
Cs       0.00000000       0.00000000       0.00000000       0.00000000       0.00000000       0.09010793
Cs       0.00000000       0.00000000       5.76484848       0.00000000       0.00000000      -0.09010793
2
Properties=species:S:1:pos:R:3:forces:R:3 energy=-0.3712941992904598 pbc="F F F"
Cs       0.00000000       0.00000000       0.00000000       0.00000000       0.00000000       0.02886105
Cs       0.00000000       0.00000000       5.82363636       0.00000000       0.00000000      -0.02886105
2
Properties=species:S:1:pos:R:3:forces:R:3 energy=-0.3709457040097159 pbc="F F F"
Cs       0.00000000       0.00000000       0.00000000       0.00000000       0.00000000      -0.01279995
Cs       0.00000000       0.00000000       5.88242424       0.00000000       0.00000000       0.01279995
2
Properties=species:S:1:pos:R:3:forces:R:3 energy=-0.372381433985749 pbc="F F F"
Cs       0.00000000       0.00000000       0.00000000       0.00000000       0.00000000      -0.03255944
Cs       0.00000000       0.00000000       5.94121212       0.00000000       0.00000000       0.03255944
2
Properties=species:S:1:pos:R:3:forces:R:3 energy=-0.37427613180055985 pbc="F F F"
Cs       0.00000000       0.00000000       0.00000000       0.00000000       0.00000000      -0.02732363
Cs       0.00000000       0.00000000       6.00000000       0.00000000       0.00000000       0.02732363
