2
Properties=species:S:1:pos:R:3:forces:R:3 energy=4195.058392652339 pbc="F F F"
Cu       0.00000000       0.00000000       0.00000000       0.00000000       0.00000000  -65728.28125000
Cu       0.00000000       0.00000000       0.18000000       0.00000000       0.00000000   65728.28125000
2
Properties=species:S:1:pos:R:3:forces:R:3 energy=1810.4232608164014 pbc="F F F"
Cu       0.00000000       0.00000000       0.00000000       0.00000000       0.00000000  -23768.06640625
Cu       0.00000000       0.00000000       0.23878788       0.00000000       0.00000000   23768.06640625
2
Properties=species:S:1:pos:R:3:forces:R:3 energy=880.7813540781201 pbc="F F F"
Cu       0.00000000       0.00000000       0.00000000       0.00000000       0.00000000  -10114.93066406
Cu       0.00000000       0.00000000       0.29757576       0.00000000       0.00000000   10114.93066406
2
Properties=species:S:1:pos:R:3:forces:R:3 energy=465.4825869882764 pbc="F F F"
Cu       0.00000000       0.00000000       0.00000000       0.00000000       0.00000000   -4773.06005859
Cu       0.00000000       0.00000000       0.35636364       0.00000000       0.00000000    4773.06005859
2
Properties=species:S:1:pos:R:3:forces:R:3 energy=263.1059695629714 pbc="F F F"
Cu       0.00000000       0.00000000       0.00000000       0.00000000       0.00000000   -2410.35937500
Cu       0.00000000       0.00000000       0.41515152       0.00000000       0.00000000    2410.35937500
2
Properties=species:S:1:pos:R:3:forces:R:3 energy=158.6711093461505 pbc="F F F"
Cu       0.00000000       0.00000000       0.00000000       0.00000000       0.00000000   -1273.27319336
Cu       0.00000000       0.00000000       0.47393939       0.00000000       0.00000000    1273.27319336
2
Properties=species:S:1:pos:R:3:forces:R:3 energy=102.75324743301651 pbc="F F F"
Cu       0.00000000       0.00000000       0.00000000       0.00000000       0.00000000    -690.89379883
Cu       0.00000000       0.00000000       0.53272727       0.00000000       0.00000000     690.89379883
2
Properties=species:S:1:pos:R:3:forces:R:3 energy=72.25515481966319 pbc="F F F"
Cu       0.00000000       0.00000000       0.00000000       0.00000000       0.00000000    -377.73986816
Cu       0.00000000       0.00000000       0.59151515       0.00000000       0.00000000     377.73986816
2
Properties=species:S:1:pos:R:3:forces:R:3 energy=55.66298417402325 pbc="F F F"
Cu       0.00000000       0.00000000       0.00000000       0.00000000       0.00000000    -203.29013062
Cu       0.00000000       0.00000000       0.65030303       0.00000000       0.00000000     203.29013062
2
Properties=species:S:1:pos:R:3:forces:R:3 energy=46.884286311032085 pbc="F F F"
Cu       0.00000000       0.00000000       0.00000000       0.00000000       0.00000000    -104.80367279
Cu       0.00000000       0.00000000       0.70909091       0.00000000       0.00000000     104.80367279
2
Properties=species:S:1:pos:R:3:forces:R:3 energy=42.45639188030586 pbc="F F F"
Cu       0.00000000       0.00000000       0.00000000       0.00000000       0.00000000     -52.01096725
Cu       0.00000000       0.00000000       0.76787879       0.00000000       0.00000000      52.01096725
2
Properties=species:S:1:pos:R:3:forces:R:3 energy=40.13718587693173 pbc="F F F"
Cu       0.00000000       0.00000000       0.00000000       0.00000000       0.00000000     -31.61253929
Cu       0.00000000       0.00000000       0.82666667       0.00000000       0.00000000      31.61253929
2
Properties=species:S:1:pos:R:3:forces:R:3 energy=38.25821893073245 pbc="F F F"
Cu       0.00000000       0.00000000       0.00000000       0.00000000       0.00000000     -35.71918488
Cu       0.00000000       0.00000000       0.88545455       0.00000000       0.00000000      35.71918488
2
Properties=species:S:1:pos:R:3:forces:R:3 energy=35.635924029434925 pbc="F F F"
Cu       0.00000000       0.00000000       0.00000000       0.00000000       0.00000000     -55.06565857
Cu       0.00000000       0.00000000       0.94424242       0.00000000       0.00000000      55.06565857
2
Properties=species:S:1:pos:R:3:forces:R:3 energy=31.732800823247644 pbc="F F F"
Cu       0.00000000       0.00000000       0.00000000       0.00000000       0.00000000     -77.03900909
Cu       0.00000000       0.00000000       1.00303030       0.00000000       0.00000000      77.03900909
2
Properties=species:S:1:pos:R:3:forces:R:3 energy=26.760072977821974 pbc="F F F"
Cu       0.00000000       0.00000000       0.00000000       0.00000000       0.00000000     -90.02754211
Cu       0.00000000       0.00000000       1.06181818       0.00000000       0.00000000      90.02754211
2
Properties=species:S:1:pos:R:3:forces:R:3 energy=21.397534855366512 pbc="F F F"
Cu       0.00000000       0.00000000       0.00000000       0.00000000       0.00000000     -90.60017395
Cu       0.00000000       0.00000000       1.12060606       0.00000000       0.00000000      90.60017395
2
Properties=species:S:1:pos:R:3:forces:R:3 energy=16.253876793749804 pbc="F F F"
Cu       0.00000000       0.00000000       0.00000000       0.00000000       0.00000000     -83.65430450
Cu       0.00000000       0.00000000       1.17939394       0.00000000       0.00000000      83.65430450
2
Properties=species:S:1:pos:R:3:forces:R:3 energy=11.62620848872053 pbc="F F F"
Cu       0.00000000       0.00000000       0.00000000       0.00000000       0.00000000     -73.22264862
Cu       0.00000000       0.00000000       1.23818182       0.00000000       0.00000000      73.22264862
2
Properties=species:S:1:pos:R:3:forces:R:3 energy=7.708259439115945 pbc="F F F"
Cu       0.00000000       0.00000000       0.00000000       0.00000000       0.00000000     -59.75015259
Cu       0.00000000       0.00000000       1.29696970       0.00000000       0.00000000      59.75015259
2
Properties=species:S:1:pos:R:3:forces:R:3 energy=4.599878512566705 pbc="F F F"
Cu       0.00000000       0.00000000       0.00000000       0.00000000       0.00000000     -46.14148331
Cu       0.00000000       0.00000000       1.35575758       0.00000000       0.00000000      46.14148331
2
Properties=species:S:1:pos:R:3:forces:R:3 energy=2.2828518611065216 pbc="F F F"
Cu       0.00000000       0.00000000       0.00000000       0.00000000       0.00000000     -32.61185455
Cu       0.00000000       0.00000000       1.41454545       0.00000000       0.00000000      32.61185455
2
Properties=species:S:1:pos:R:3:forces:R:3 energy=0.7459740827823741 pbc="F F F"
Cu       0.00000000       0.00000000       0.00000000       0.00000000       0.00000000     -20.20284843
Cu       0.00000000       0.00000000       1.47333333       0.00000000       0.00000000      20.20284843
2
Properties=species:S:1:pos:R:3:forces:R:3 energy=-0.18362097678831268 pbc="F F F"
Cu       0.00000000       0.00000000       0.00000000       0.00000000       0.00000000     -12.26342201
Cu       0.00000000       0.00000000       1.53212121       0.00000000       0.00000000      12.26342201
2
Properties=species:S:1:pos:R:3:forces:R:3 energy=-0.7799280971075057 pbc="F F F"
Cu       0.00000000       0.00000000       0.00000000       0.00000000       0.00000000      -8.56560993
Cu       0.00000000       0.00000000       1.59090909       0.00000000       0.00000000       8.56560993
2
Properties=species:S:1:pos:R:3:forces:R:3 energy=-1.2347628657810168 pbc="F F F"
Cu       0.00000000       0.00000000       0.00000000       0.00000000       0.00000000      -7.13860130
Cu       0.00000000       0.00000000       1.64969697       0.00000000       0.00000000       7.13860130
2
Properties=species:S:1:pos:R:3:forces:R:3 energy=-1.6339715320974355 pbc="F F F"
Cu       0.00000000       0.00000000       0.00000000       0.00000000       0.00000000      -6.48662663
Cu       0.00000000       0.00000000       1.70848485       0.00000000       0.00000000       6.48662663
2
Properties=species:S:1:pos:R:3:forces:R:3 energy=-1.9967304424107297 pbc="F F F"
Cu       0.00000000       0.00000000       0.00000000       0.00000000       0.00000000      -5.81665134
Cu       0.00000000       0.00000000       1.76727273       0.00000000       0.00000000       5.81665134
2
Properties=species:S:1:pos:R:3:forces:R:3 energy=-2.312157650416084 pbc="F F F"
Cu       0.00000000       0.00000000       0.00000000       0.00000000       0.00000000      -4.86594629
Cu       0.00000000       0.00000000       1.82606061       0.00000000       0.00000000       4.86594629
2
Properties=species:S:1:pos:R:3:forces:R:3 energy=-2.564425013980638 pbc="F F F"
Cu       0.00000000       0.00000000       0.00000000       0.00000000       0.00000000      -3.69321370
Cu       0.00000000       0.00000000       1.88484848       0.00000000       0.00000000       3.69321370
2
Properties=species:S:1:pos:R:3:forces:R:3 energy=-2.7455441415495865 pbc="F F F"
Cu       0.00000000       0.00000000       0.00000000       0.00000000       0.00000000      -2.47601366
Cu       0.00000000       0.00000000       1.94363636       0.00000000       0.00000000       2.47601366
2
Properties=species:S:1:pos:R:3:forces:R:3 energy=-2.8577350513872397 pbc="F F F"
Cu       0.00000000       0.00000000       0.00000000       0.00000000       0.00000000      -1.36791551
Cu       0.00000000       0.00000000       2.00242424       0.00000000       0.00000000       1.36791551
2
Properties=species:S:1:pos:R:3:forces:R:3 energy=-2.9101454594047076 pbc="F F F"
Cu       0.00000000       0.00000000       0.00000000       0.00000000       0.00000000      -0.45032147
Cu       0.00000000       0.00000000       2.06121212       0.00000000       0.00000000       0.45032147
2
Properties=species:S:1:pos:R:3:forces:R:3 energy=-2.914971637521996 pbc="F F F"
Cu       0.00000000       0.00000000       0.00000000       0.00000000       0.00000000       0.24919657
Cu       0.00000000       0.00000000       2.12000000       0.00000000       0.00000000      -0.24919657
2
Properties=species:S:1:pos:R:3:forces:R:3 energy=-2.885134484261209 pbc="F F F"
Cu       0.00000000       0.00000000       0.00000000       0.00000000       0.00000000       0.73054844
Cu       0.00000000       0.00000000       2.17878788       0.00000000       0.00000000      -0.73054844
2
Properties=species:S:1:pos:R:3:forces:R:3 energy=-2.832968121703402 pbc="F F F"
Cu       0.00000000       0.00000000       0.00000000       0.00000000       0.00000000       1.01404321
Cu       0.00000000       0.00000000       2.23757576       0.00000000       0.00000000      -1.01404321
2
Properties=species:S:1:pos:R:3:forces:R:3 energy=-2.7689891671364055 pbc="F F F"
Cu       0.00000000       0.00000000       0.00000000       0.00000000       0.00000000       1.14070439
Cu       0.00000000       0.00000000       2.29636364       0.00000000       0.00000000      -1.14070439
2
Properties=species:S:1:pos:R:3:forces:R:3 energy=-2.7008871234561282 pbc="F F F"
Cu       0.00000000       0.00000000       0.00000000       0.00000000       0.00000000       1.16317713
Cu       0.00000000       0.00000000       2.35515152       0.00000000       0.00000000      -1.16317713
2
Properties=species:S:1:pos:R:3:forces:R:3 energy=-2.633321709809271 pbc="F F F"
Cu       0.00000000       0.00000000       0.00000000       0.00000000       0.00000000       1.12922418
Cu       0.00000000       0.00000000       2.41393939       0.00000000       0.00000000      -1.12922418
2
Properties=species:S:1:pos:R:3:forces:R:3 energy=-2.56859793450893 pbc="F F F"
Cu       0.00000000       0.00000000       0.00000000       0.00000000       0.00000000       1.07015789
Cu       0.00000000       0.00000000       2.47272727       0.00000000       0.00000000      -1.07015789
2
Properties=species:S:1:pos:R:3:forces:R:3 energy=-2.5077065887266796 pbc="F F F"
Cu       0.00000000       0.00000000       0.00000000       0.00000000       0.00000000       1.00005925
Cu       0.00000000       0.00000000       2.53151515       0.00000000       0.00000000      -1.00005925
2
Properties=species:S:1:pos:R:3:forces:R:3 energy=-2.451143940738316 pbc="F F F"
Cu       0.00000000       0.00000000       0.00000000       0.00000000       0.00000000       0.92348027
Cu       0.00000000       0.00000000       2.59030303       0.00000000       0.00000000      -0.92348027
2
Properties=species:S:1:pos:R:3:forces:R:3 energy=-2.3991214660779 pbc="F F F"
Cu       0.00000000       0.00000000       0.00000000       0.00000000       0.00000000       0.84767365
Cu       0.00000000       0.00000000       2.64909091       0.00000000       0.00000000      -0.84767365
2
Properties=species:S:1:pos:R:3:forces:R:3 energy=-2.3511244190997154 pbc="F F F"
Cu       0.00000000       0.00000000       0.00000000       0.00000000       0.00000000       0.78981179
Cu       0.00000000       0.00000000       2.70787879       0.00000000       0.00000000      -0.78981179
2
Properties=species:S:1:pos:R:3:forces:R:3 energy=-2.305630540463039 pbc="F F F"
Cu       0.00000000       0.00000000       0.00000000       0.00000000       0.00000000       0.76321769
Cu       0.00000000       0.00000000       2.76666667       0.00000000       0.00000000      -0.76321769
2
Properties=species:S:1:pos:R:3:forces:R:3 energy=-2.2608616386159994 pbc="F F F"
Cu       0.00000000       0.00000000       0.00000000       0.00000000       0.00000000       0.76331598
Cu       0.00000000       0.00000000       2.82545455       0.00000000       0.00000000      -0.76331598
2
Properties=species:S:1:pos:R:3:forces:R:3 energy=-2.2155797910217085 pbc="F F F"
Cu       0.00000000       0.00000000       0.00000000       0.00000000       0.00000000       0.77903092
Cu       0.00000000       0.00000000       2.88424242       0.00000000       0.00000000      -0.77903092
2
Properties=species:S:1:pos:R:3:forces:R:3 energy=-2.1691264122274942 pbc="F F F"
Cu       0.00000000       0.00000000       0.00000000       0.00000000       0.00000000       0.80192947
Cu       0.00000000       0.00000000       2.94303030       0.00000000       0.00000000      -0.80192947
2
Properties=species:S:1:pos:R:3:forces:R:3 energy=-2.1212923408334525 pbc="F F F"
Cu       0.00000000       0.00000000       0.00000000       0.00000000       0.00000000       0.82483596
Cu       0.00000000       0.00000000       3.00181818       0.00000000       0.00000000      -0.82483596
2
Properties=species:S:1:pos:R:3:forces:R:3 energy=-2.0722716783591744 pbc="F F F"
Cu       0.00000000       0.00000000       0.00000000       0.00000000       0.00000000       0.84138846
Cu       0.00000000       0.00000000       3.06060606       0.00000000       0.00000000      -0.84138846
2
Properties=species:S:1:pos:R:3:forces:R:3 energy=-2.0225730091856664 pbc="F F F"
Cu       0.00000000       0.00000000       0.00000000       0.00000000       0.00000000       0.84747517
Cu       0.00000000       0.00000000       3.11939394       0.00000000       0.00000000      -0.84747517
2
Properties=species:S:1:pos:R:3:forces:R:3 energy=-1.972859505592298 pbc="F F F"
Cu       0.00000000       0.00000000       0.00000000       0.00000000       0.00000000       0.84188914
Cu       0.00000000       0.00000000       3.17818182       0.00000000       0.00000000      -0.84188914
2
Properties=species:S:1:pos:R:3:forces:R:3 energy=-1.9237953615085095 pbc="F F F"
Cu       0.00000000       0.00000000       0.00000000       0.00000000       0.00000000       0.82571971
Cu       0.00000000       0.00000000       3.23696970       0.00000000       0.00000000      -0.82571971
2
Properties=species:S:1:pos:R:3:forces:R:3 energy=-1.8759364341757088 pbc="F F F"
Cu       0.00000000       0.00000000       0.00000000       0.00000000       0.00000000       0.80130631
Cu       0.00000000       0.00000000       3.29575758       0.00000000       0.00000000      -0.80130631
2
Properties=species:S:1:pos:R:3:forces:R:3 energy=-1.829688263023535 pbc="F F F"
Cu       0.00000000       0.00000000       0.00000000       0.00000000       0.00000000       0.77142632
Cu       0.00000000       0.00000000       3.35454545       0.00000000       0.00000000      -0.77142632
2
Properties=species:S:1:pos:R:3:forces:R:3 energy=-1.7852890866264484 pbc="F F F"
Cu       0.00000000       0.00000000       0.00000000       0.00000000       0.00000000       0.73880571
Cu       0.00000000       0.00000000       3.41333333       0.00000000       0.00000000      -0.73880571
2
Properties=species:S:1:pos:R:3:forces:R:3 energy=-1.7428294290575468 pbc="F F F"
Cu       0.00000000       0.00000000       0.00000000       0.00000000       0.00000000       0.70579523
Cu       0.00000000       0.00000000       3.47212121       0.00000000       0.00000000      -0.70579523
2
Properties=species:S:1:pos:R:3:forces:R:3 energy=-1.702279671088728 pbc="F F F"
Cu       0.00000000       0.00000000       0.00000000       0.00000000       0.00000000       0.67404687
Cu       0.00000000       0.00000000       3.53090909       0.00000000       0.00000000      -0.67404687
2
Properties=species:S:1:pos:R:3:forces:R:3 energy=-1.6635385543724452 pbc="F F F"
Cu       0.00000000       0.00000000       0.00000000       0.00000000       0.00000000       0.64426583
Cu       0.00000000       0.00000000       3.58969697       0.00000000       0.00000000      -0.64426583
2
Properties=species:S:1:pos:R:3:forces:R:3 energy=-1.6264959345493302 pbc="F F F"
Cu       0.00000000       0.00000000       0.00000000       0.00000000       0.00000000       0.61616468
Cu       0.00000000       0.00000000       3.64848485       0.00000000       0.00000000      -0.61616468
2
Properties=species:S:1:pos:R:3:forces:R:3 energy=-1.5910806371943615 pbc="F F F"
Cu       0.00000000       0.00000000       0.00000000       0.00000000       0.00000000       0.58866966
Cu       0.00000000       0.00000000       3.70727273       0.00000000       0.00000000      -0.58866966
2
Properties=species:S:1:pos:R:3:forces:R:3 energy=-1.5572984994194712 pbc="F F F"
Cu       0.00000000       0.00000000       0.00000000       0.00000000       0.00000000       0.56035531
Cu       0.00000000       0.00000000       3.76606061       0.00000000       0.00000000      -0.56035531
2
Properties=species:S:1:pos:R:3:forces:R:3 energy=-1.525237981381703 pbc="F F F"
Cu       0.00000000       0.00000000       0.00000000       0.00000000       0.00000000       0.52993757
Cu       0.00000000       0.00000000       3.82484848       0.00000000       0.00000000      -0.52993757
2
Properties=species:S:1:pos:R:3:forces:R:3 energy=-1.4950468381083732 pbc="F F F"
Cu       0.00000000       0.00000000       0.00000000       0.00000000       0.00000000       0.49668109
Cu       0.00000000       0.00000000       3.88363636       0.00000000       0.00000000      -0.49668109
2
Properties=species:S:1:pos:R:3:forces:R:3 energy=-1.4668955792659784 pbc="F F F"
Cu       0.00000000       0.00000000       0.00000000       0.00000000       0.00000000       0.46062914
Cu       0.00000000       0.00000000       3.94242424       0.00000000       0.00000000      -0.46062914
2
Properties=species:S:1:pos:R:3:forces:R:3 energy=-1.4409274139298713 pbc="F F F"
Cu       0.00000000       0.00000000       0.00000000       0.00000000       0.00000000       0.42260897
Cu       0.00000000       0.00000000       4.00121212       0.00000000       0.00000000      -0.42260897
2
Properties=species:S:1:pos:R:3:forces:R:3 energy=-1.4172180885570198 pbc="F F F"
Cu       0.00000000       0.00000000       0.00000000       0.00000000       0.00000000       0.38404173
Cu       0.00000000       0.00000000       4.06000000       0.00000000       0.00000000      -0.38404173
2
Properties=species:S:1:pos:R:3:forces:R:3 energy=-1.3957506071130255 pbc="F F F"
Cu       0.00000000       0.00000000       0.00000000       0.00000000       0.00000000       0.34663320
Cu       0.00000000       0.00000000       4.11878788       0.00000000       0.00000000      -0.34663320
2
Properties=species:S:1:pos:R:3:forces:R:3 energy=-1.3764075014752353 pbc="F F F"
Cu       0.00000000       0.00000000       0.00000000       0.00000000       0.00000000       0.31201240
Cu       0.00000000       0.00000000       4.17757576       0.00000000       0.00000000      -0.31201240
2
Properties=species:S:1:pos:R:3:forces:R:3 energy=-1.3589858462994995 pbc="F F F"
Cu       0.00000000       0.00000000       0.00000000       0.00000000       0.00000000       0.28142351
Cu       0.00000000       0.00000000       4.23636364       0.00000000       0.00000000      -0.28142351
2
Properties=species:S:1:pos:R:3:forces:R:3 energy=-1.3432266783721125 pbc="F F F"
Cu       0.00000000       0.00000000       0.00000000       0.00000000       0.00000000       0.25549862
Cu       0.00000000       0.00000000       4.29515152       0.00000000       0.00000000      -0.25549862
2
Properties=species:S:1:pos:R:3:forces:R:3 energy=-1.3288545444155933 pbc="F F F"
Cu       0.00000000       0.00000000       0.00000000       0.00000000       0.00000000       0.23420106
Cu       0.00000000       0.00000000       4.35393939       0.00000000       0.00000000      -0.23420106
2
Properties=species:S:1:pos:R:3:forces:R:3 energy=-1.315612154977948 pbc="F F F"
Cu       0.00000000       0.00000000       0.00000000       0.00000000       0.00000000       0.21689874
Cu       0.00000000       0.00000000       4.41272727       0.00000000       0.00000000      -0.21689874
2
Properties=species:S:1:pos:R:3:forces:R:3 energy=-1.303293527782989 pbc="F F F"
Cu       0.00000000       0.00000000       0.00000000       0.00000000       0.00000000       0.20259598
Cu       0.00000000       0.00000000       4.47151515       0.00000000       0.00000000      -0.20259598
2
Properties=species:S:1:pos:R:3:forces:R:3 energy=-1.2917540670829264 pbc="F F F"
Cu       0.00000000       0.00000000       0.00000000       0.00000000       0.00000000       0.19021024
Cu       0.00000000       0.00000000       4.53030303       0.00000000       0.00000000      -0.19021024
2
Properties=species:S:1:pos:R:3:forces:R:3 energy=-1.2809100598947243 pbc="F F F"
Cu       0.00000000       0.00000000       0.00000000       0.00000000       0.00000000       0.17882191
Cu       0.00000000       0.00000000       4.58909091       0.00000000       0.00000000      -0.17882191
2
Properties=species:S:1:pos:R:3:forces:R:3 energy=-1.2707222029433858 pbc="F F F"
Cu       0.00000000       0.00000000       0.00000000       0.00000000       0.00000000       0.16780312
Cu       0.00000000       0.00000000       4.64787879       0.00000000       0.00000000      -0.16780312
2
Properties=species:S:1:pos:R:3:forces:R:3 energy=-1.2611804203165824 pbc="F F F"
Cu       0.00000000       0.00000000       0.00000000       0.00000000       0.00000000       0.15678772
Cu       0.00000000       0.00000000       4.70666667       0.00000000       0.00000000      -0.15678772
2
Properties=species:S:1:pos:R:3:forces:R:3 energy=-1.2522920268989441 pbc="F F F"
Cu       0.00000000       0.00000000       0.00000000       0.00000000       0.00000000       0.14555505
Cu       0.00000000       0.00000000       4.76545455       0.00000000       0.00000000      -0.14555505
2
Properties=species:S:1:pos:R:3:forces:R:3 energy=-1.2440745373848616 pbc="F F F"
Cu       0.00000000       0.00000000       0.00000000       0.00000000       0.00000000       0.13390282
Cu       0.00000000       0.00000000       4.82424242       0.00000000       0.00000000      -0.13390282
2
Properties=species:S:1:pos:R:3:forces:R:3 energy=-1.2365612437725186 pbc="F F F"
Cu       0.00000000       0.00000000       0.00000000       0.00000000       0.00000000       0.12160672
Cu       0.00000000       0.00000000       4.88303030       0.00000000       0.00000000      -0.12160672
2
Properties=species:S:1:pos:R:3:forces:R:3 energy=-1.229793506357847 pbc="F F F"
Cu       0.00000000       0.00000000       0.00000000       0.00000000       0.00000000       0.10846630
Cu       0.00000000       0.00000000       4.94181818       0.00000000       0.00000000      -0.10846630
2
Properties=species:S:1:pos:R:3:forces:R:3 energy=-1.2238257937868207 pbc="F F F"
Cu       0.00000000       0.00000000       0.00000000       0.00000000       0.00000000       0.09441423
Cu       0.00000000       0.00000000       5.00060606       0.00000000       0.00000000      -0.09441423
2
Properties=species:S:1:pos:R:3:forces:R:3 energy=-1.2187077901586878 pbc="F F F"
Cu       0.00000000       0.00000000       0.00000000       0.00000000       0.00000000       0.07958742
Cu       0.00000000       0.00000000       5.05939394       0.00000000       0.00000000      -0.07958742
2
Properties=species:S:1:pos:R:3:forces:R:3 energy=-1.214476263451702 pbc="F F F"
Cu       0.00000000       0.00000000       0.00000000       0.00000000       0.00000000       0.06435389
Cu       0.00000000       0.00000000       5.11818182       0.00000000       0.00000000      -0.06435389
2
Properties=species:S:1:pos:R:3:forces:R:3 energy=-1.2111388098781868 pbc="F F F"
Cu       0.00000000       0.00000000       0.00000000       0.00000000       0.00000000       0.04926577
Cu       0.00000000       0.00000000       5.17696970       0.00000000       0.00000000      -0.04926577
2
Properties=species:S:1:pos:R:3:forces:R:3 energy=-1.2086681044961902 pbc="F F F"
Cu       0.00000000       0.00000000       0.00000000       0.00000000       0.00000000       0.03498320
Cu       0.00000000       0.00000000       5.23575758       0.00000000       0.00000000      -0.03498320
2
Properties=species:S:1:pos:R:3:forces:R:3 energy=-1.2069968682847894 pbc="F F F"
Cu       0.00000000       0.00000000       0.00000000       0.00000000       0.00000000       0.02216999
Cu       0.00000000       0.00000000       5.29454545       0.00000000       0.00000000      -0.02216999
2
Properties=species:S:1:pos:R:3:forces:R:3 energy=-1.2060211905410856 pbc="F F F"
Cu       0.00000000       0.00000000       0.00000000       0.00000000       0.00000000       0.01140419
Cu       0.00000000       0.00000000       5.35333333       0.00000000       0.00000000      -0.01140419
2
Properties=species:S:1:pos:R:3:forces:R:3 energy=-1.2056077020284197 pbc="F F F"
Cu       0.00000000       0.00000000       0.00000000       0.00000000       0.00000000       0.00309451
Cu       0.00000000       0.00000000       5.41212121       0.00000000       0.00000000      -0.00309451
2
Properties=species:S:1:pos:R:3:forces:R:3 energy=-1.2056056293698179 pbc="F F F"
Cu       0.00000000       0.00000000       0.00000000       0.00000000       0.00000000      -0.00257929
Cu       0.00000000       0.00000000       5.47090909       0.00000000       0.00000000       0.00257929
2
Properties=species:S:1:pos:R:3:forces:R:3 energy=-1.2058605627209984 pbc="F F F"
Cu       0.00000000       0.00000000       0.00000000       0.00000000       0.00000000      -0.00568276
Cu       0.00000000       0.00000000       5.52969697       0.00000000       0.00000000       0.00568276
2
Properties=species:S:1:pos:R:3:forces:R:3 energy=-1.206229140687742 pbc="F F F"
Cu       0.00000000       0.00000000       0.00000000       0.00000000       0.00000000      -0.00651729
Cu       0.00000000       0.00000000       5.58848485       0.00000000       0.00000000       0.00651729
2
Properties=species:S:1:pos:R:3:forces:R:3 energy=-1.2065912247205814 pbc="F F F"
Cu       0.00000000       0.00000000       0.00000000       0.00000000       0.00000000      -0.00557292
Cu       0.00000000       0.00000000       5.64727273       0.00000000       0.00000000       0.00557292
2
Properties=species:S:1:pos:R:3:forces:R:3 energy=-1.2068609958741519 pbc="F F F"
Cu       0.00000000       0.00000000       0.00000000       0.00000000       0.00000000      -0.00345023
Cu       0.00000000       0.00000000       5.70606061       0.00000000       0.00000000       0.00345023
2
Properties=species:S:1:pos:R:3:forces:R:3 energy=-1.2069874815375468 pbc="F F F"
Cu       0.00000000       0.00000000       0.00000000       0.00000000       0.00000000      -0.00077428
Cu       0.00000000       0.00000000       5.76484848       0.00000000       0.00000000       0.00077428
2
Properties=species:S:1:pos:R:3:forces:R:3 energy=-1.2069533395827576 pbc="F F F"
Cu       0.00000000       0.00000000       0.00000000       0.00000000       0.00000000       0.00188088
Cu       0.00000000       0.00000000       5.82363636       0.00000000       0.00000000      -0.00188088
2
Properties=species:S:1:pos:R:3:forces:R:3 energy=-1.206775118958007 pbc="F F F"
Cu       0.00000000       0.00000000       0.00000000       0.00000000       0.00000000       0.00404075
Cu       0.00000000       0.00000000       5.88242424       0.00000000       0.00000000      -0.00404075
2
Properties=species:S:1:pos:R:3:forces:R:3 energy=-1.206494460375078 pbc="F F F"
Cu       0.00000000       0.00000000       0.00000000       0.00000000       0.00000000       0.00536063
Cu       0.00000000       0.00000000       5.94121212       0.00000000       0.00000000      -0.00536063
2
Properties=species:S:1:pos:R:3:forces:R:3 energy=-1.2061662755827145 pbc="F F F"
Cu       0.00000000       0.00000000       0.00000000       0.00000000       0.00000000       0.00560382
Cu       0.00000000       0.00000000       6.00000000       0.00000000       0.00000000      -0.00560382
