2
Properties=species:S:1:pos:R:3:forces:R:3 energy=68597.07827875527 pbc="F F F"
Dy       0.00000000       0.00000000       0.00000000       0.00000000       0.00000000 -1708456.87500000
Dy       0.00000000       0.00000000       0.10000000       0.00000000       0.00000000 1708456.87500000
2
Properties=species:S:1:pos:R:3:forces:R:3 energy=19219.82827875527 pbc="F F F"
Dy       0.00000000       0.00000000       0.00000000       0.00000000       0.00000000 -357452.90625000
Dy       0.00000000       0.00000000       0.15959596       0.00000000       0.00000000  357452.90625000
2
Properties=species:S:1:pos:R:3:forces:R:3 energy=7039.404450630271 pbc="F F F"
Dy       0.00000000       0.00000000       0.00000000       0.00000000       0.00000000 -108574.60937500
Dy       0.00000000       0.00000000       0.21919192       0.00000000       0.00000000  108574.60937500
2
Properties=species:S:1:pos:R:3:forces:R:3 energy=2982.6605541458957 pbc="F F F"
Dy       0.00000000       0.00000000       0.00000000       0.00000000       0.00000000  -40341.13671875
Dy       0.00000000       0.00000000       0.27878788       0.00000000       0.00000000   40341.13671875
2
Properties=species:S:1:pos:R:3:forces:R:3 energy=1389.870759236692 pbc="F F F"
Dy       0.00000000       0.00000000       0.00000000       0.00000000       0.00000000  -16892.52148438
Dy       0.00000000       0.00000000       0.33838384       0.00000000       0.00000000   16892.52148438
2
Properties=species:S:1:pos:R:3:forces:R:3 energy=697.7790233968483 pbc="F F F"
Dy       0.00000000       0.00000000       0.00000000       0.00000000       0.00000000   -7668.61718750
Dy       0.00000000       0.00000000       0.39797980       0.00000000       0.00000000    7668.61718750
2
Properties=species:S:1:pos:R:3:forces:R:3 energy=374.55929684701965 pbc="F F F"
Dy       0.00000000       0.00000000       0.00000000       0.00000000       0.00000000   -3705.60620117
Dy       0.00000000       0.00000000       0.45757576       0.00000000       0.00000000    3705.60620117
2
Properties=species:S:1:pos:R:3:forces:R:3 energy=214.5910809173081 pbc="F F F"
Dy       0.00000000       0.00000000       0.00000000       0.00000000       0.00000000   -1887.54443359
Dy       0.00000000       0.00000000       0.51717172       0.00000000       0.00000000    1887.54443359
2
Properties=species:S:1:pos:R:3:forces:R:3 energy=131.3798535129872 pbc="F F F"
Dy       0.00000000       0.00000000       0.00000000       0.00000000       0.00000000   -1006.56311035
Dy       0.00000000       0.00000000       0.57676768       0.00000000       0.00000000    1006.56311035
2
Properties=species:S:1:pos:R:3:forces:R:3 energy=86.19101841962939 pbc="F F F"
Dy       0.00000000       0.00000000       0.00000000       0.00000000       0.00000000    -558.25280762
Dy       0.00000000       0.00000000       0.63636364       0.00000000       0.00000000     558.25280762
2
Properties=species:S:1:pos:R:3:forces:R:3 energy=60.74460354814735 pbc="F F F"
Dy       0.00000000       0.00000000       0.00000000       0.00000000       0.00000000    -319.79632568
Dy       0.00000000       0.00000000       0.69595960       0.00000000       0.00000000     319.79632568
2
Properties=species:S:1:pos:R:3:forces:R:3 energy=45.98584510459579 pbc="F F F"
Dy       0.00000000       0.00000000       0.00000000       0.00000000       0.00000000    -188.09895325
Dy       0.00000000       0.00000000       0.75555556       0.00000000       0.00000000     188.09895325
2
Properties=species:S:1:pos:R:3:forces:R:3 energy=37.20530097564539 pbc="F F F"
Dy       0.00000000       0.00000000       0.00000000       0.00000000       0.00000000    -113.52776337
Dy       0.00000000       0.00000000       0.81515152       0.00000000       0.00000000     113.52776337
2
Properties=species:S:1:pos:R:3:forces:R:3 energy=31.817943504607882 pbc="F F F"
Dy       0.00000000       0.00000000       0.00000000       0.00000000       0.00000000     -71.36237335
Dy       0.00000000       0.00000000       0.87474747       0.00000000       0.00000000      71.36237335
2
Properties=species:S:1:pos:R:3:forces:R:3 energy=28.31228473066783 pbc="F F F"
Dy       0.00000000       0.00000000       0.00000000       0.00000000       0.00000000     -48.86982346
Dy       0.00000000       0.00000000       0.93434343       0.00000000       0.00000000      48.86982346
2
Properties=species:S:1:pos:R:3:forces:R:3 energy=25.742232086248283 pbc="F F F"
Dy       0.00000000       0.00000000       0.00000000       0.00000000       0.00000000     -39.08316040
Dy       0.00000000       0.00000000       0.99393939       0.00000000       0.00000000      39.08316040
2
Properties=species:S:1:pos:R:3:forces:R:3 energy=23.489573863147285 pbc="F F F"
Dy       0.00000000       0.00000000       0.00000000       0.00000000       0.00000000     -37.59429169
Dy       0.00000000       0.00000000       1.05353535       0.00000000       0.00000000      37.59429169
2
Properties=species:S:1:pos:R:3:forces:R:3 energy=21.165540949598427 pbc="F F F"
Dy       0.00000000       0.00000000       0.00000000       0.00000000       0.00000000     -40.93769455
Dy       0.00000000       0.00000000       1.11313131       0.00000000       0.00000000      40.93769455
2
Properties=species:S:1:pos:R:3:forces:R:3 energy=18.57373753493471 pbc="F F F"
Dy       0.00000000       0.00000000       0.00000000       0.00000000       0.00000000     -46.13822556
Dy       0.00000000       0.00000000       1.17272727       0.00000000       0.00000000      46.13822556
2
Properties=species:S:1:pos:R:3:forces:R:3 energy=15.673370263628312 pbc="F F F"
Dy       0.00000000       0.00000000       0.00000000       0.00000000       0.00000000     -51.01314545
Dy       0.00000000       0.00000000       1.23232323       0.00000000       0.00000000      51.01314545
2
Properties=species:S:1:pos:R:3:forces:R:3 energy=12.527679250305198 pbc="F F F"
Dy       0.00000000       0.00000000       0.00000000       0.00000000       0.00000000     -54.15170670
Dy       0.00000000       0.00000000       1.29191919       0.00000000       0.00000000      54.15170670
2
Properties=species:S:1:pos:R:3:forces:R:3 energy=9.284654810409995 pbc="F F F"
Dy       0.00000000       0.00000000       0.00000000       0.00000000       0.00000000     -53.97022629
Dy       0.00000000       0.00000000       1.35151515       0.00000000       0.00000000      53.97022629
2
Properties=species:S:1:pos:R:3:forces:R:3 energy=6.190406079444654 pbc="F F F"
Dy       0.00000000       0.00000000       0.00000000       0.00000000       0.00000000     -49.08529663
Dy       0.00000000       0.00000000       1.41111111       0.00000000       0.00000000      49.08529663
2
Properties=species:S:1:pos:R:3:forces:R:3 energy=3.507183582210877 pbc="F F F"
Dy       0.00000000       0.00000000       0.00000000       0.00000000       0.00000000     -40.55043793
Dy       0.00000000       0.00000000       1.47070707       0.00000000       0.00000000      40.55043793
2
Properties=species:S:1:pos:R:3:forces:R:3 energy=1.3971086474837942 pbc="F F F"
Dy       0.00000000       0.00000000       0.00000000       0.00000000       0.00000000     -29.87251663
Dy       0.00000000       0.00000000       1.53030303       0.00000000       0.00000000      29.87251663
2
Properties=species:S:1:pos:R:3:forces:R:3 energy=0.0046609747492711295 pbc="F F F"
Dy       0.00000000       0.00000000       0.00000000       0.00000000       0.00000000     -16.41292763
Dy       0.00000000       0.00000000       1.58989899       0.00000000       0.00000000      16.41292763
2
Properties=species:S:1:pos:R:3:forces:R:3 energy=-0.5540267697266666 pbc="F F F"
Dy       0.00000000       0.00000000       0.00000000       0.00000000       0.00000000      -2.87601113
Dy       0.00000000       0.00000000       1.64949495       0.00000000       0.00000000       2.87601113
2
Properties=species:S:1:pos:R:3:forces:R:3 energy=-0.46460697525245426 pbc="F F F"
Dy       0.00000000       0.00000000       0.00000000       0.00000000       0.00000000       4.53947496
Dy       0.00000000       0.00000000       1.70909091       0.00000000       0.00000000      -4.53947496
2
Properties=species:S:1:pos:R:3:forces:R:3 energy=-0.15686671351103015 pbc="F F F"
Dy       0.00000000       0.00000000       0.00000000       0.00000000       0.00000000       4.88812113
Dy       0.00000000       0.00000000       1.76868687       0.00000000       0.00000000      -4.88812113
2
Properties=species:S:1:pos:R:3:forces:R:3 energy=0.0562294122987743 pbc="F F F"
Dy       0.00000000       0.00000000       0.00000000       0.00000000       0.00000000       2.08572340
Dy       0.00000000       0.00000000       1.82828283       0.00000000       0.00000000      -2.08572340
2
Properties=species:S:1:pos:R:3:forces:R:3 energy=0.09783747822353027 pbc="F F F"
Dy       0.00000000       0.00000000       0.00000000       0.00000000       0.00000000      -0.49264547
Dy       0.00000000       0.00000000       1.88787879       0.00000000       0.00000000       0.49264547
2
Properties=species:S:1:pos:R:3:forces:R:3 energy=0.025042518662895003 pbc="F F F"
Dy       0.00000000       0.00000000       0.00000000       0.00000000       0.00000000      -1.74079490
Dy       0.00000000       0.00000000       1.94747475       0.00000000       0.00000000       1.74079490
2
Properties=species:S:1:pos:R:3:forces:R:3 energy=-0.09213831022978164 pbc="F F F"
Dy       0.00000000       0.00000000       0.00000000       0.00000000       0.00000000      -2.10689425
Dy       0.00000000       0.00000000       2.00707071       0.00000000       0.00000000       2.10689425
2
Properties=species:S:1:pos:R:3:forces:R:3 energy=-0.22077998513572294 pbc="F F F"
Dy       0.00000000       0.00000000       0.00000000       0.00000000       0.00000000      -2.18975401
Dy       0.00000000       0.00000000       2.06666667       0.00000000       0.00000000       2.18975401
2
Properties=species:S:1:pos:R:3:forces:R:3 energy=-0.3516920440741694 pbc="F F F"
Dy       0.00000000       0.00000000       0.00000000       0.00000000       0.00000000      -2.19510698
Dy       0.00000000       0.00000000       2.12626263       0.00000000       0.00000000       2.19510698
2
Properties=species:S:1:pos:R:3:forces:R:3 energy=-0.48157042255922355 pbc="F F F"
Dy       0.00000000       0.00000000       0.00000000       0.00000000       0.00000000      -2.15742278
Dy       0.00000000       0.00000000       2.18585859       0.00000000       0.00000000       2.15742278
2
Properties=species:S:1:pos:R:3:forces:R:3 energy=-0.6082447200255294 pbc="F F F"
Dy       0.00000000       0.00000000       0.00000000       0.00000000       0.00000000      -2.08986259
Dy       0.00000000       0.00000000       2.24545455       0.00000000       0.00000000       2.08986259
2
Properties=species:S:1:pos:R:3:forces:R:3 energy=-0.7303597575538141 pbc="F F F"
Dy       0.00000000       0.00000000       0.00000000       0.00000000       0.00000000      -2.00686002
Dy       0.00000000       0.00000000       2.30505051       0.00000000       0.00000000       2.00686002
2
Properties=species:S:1:pos:R:3:forces:R:3 energy=-0.8473984362521598 pbc="F F F"
Dy       0.00000000       0.00000000       0.00000000       0.00000000       0.00000000      -1.92129278
Dy       0.00000000       0.00000000       2.36464646       0.00000000       0.00000000       1.92129278
2
Properties=species:S:1:pos:R:3:forces:R:3 energy=-0.9594685828347431 pbc="F F F"
Dy       0.00000000       0.00000000       0.00000000       0.00000000       0.00000000      -1.84089231
Dy       0.00000000       0.00000000       2.42424242       0.00000000       0.00000000       1.84089231
2
Properties=species:S:1:pos:R:3:forces:R:3 energy=-1.0669609165793352 pbc="F F F"
Dy       0.00000000       0.00000000       0.00000000       0.00000000       0.00000000      -1.76762712
Dy       0.00000000       0.00000000       2.48383838       0.00000000       0.00000000       1.76762712
2
Properties=species:S:1:pos:R:3:forces:R:3 energy=-1.170258366394222 pbc="F F F"
Dy       0.00000000       0.00000000       0.00000000       0.00000000       0.00000000      -1.69952500
Dy       0.00000000       0.00000000       2.54343434       0.00000000       0.00000000       1.69952500
2
Properties=species:S:1:pos:R:3:forces:R:3 energy=-1.2695632896242905 pbc="F F F"
Dy       0.00000000       0.00000000       0.00000000       0.00000000       0.00000000      -1.63305044
Dy       0.00000000       0.00000000       2.60303030       0.00000000       0.00000000       1.63305044
2
Properties=species:S:1:pos:R:3:forces:R:3 energy=-1.3648698788522935 pbc="F F F"
Dy       0.00000000       0.00000000       0.00000000       0.00000000       0.00000000      -1.56480312
Dy       0.00000000       0.00000000       2.66262626       0.00000000       0.00000000       1.56480312
2
Properties=species:S:1:pos:R:3:forces:R:3 energy=-1.4559828322398491 pbc="F F F"
Dy       0.00000000       0.00000000       0.00000000       0.00000000       0.00000000      -1.49185169
Dy       0.00000000       0.00000000       2.72222222       0.00000000       0.00000000       1.49185169
2
Properties=species:S:1:pos:R:3:forces:R:3 energy=-1.5425254114098792 pbc="F F F"
Dy       0.00000000       0.00000000       0.00000000       0.00000000       0.00000000      -1.41074824
Dy       0.00000000       0.00000000       2.78181818       0.00000000       0.00000000       1.41074824
2
Properties=species:S:1:pos:R:3:forces:R:3 energy=-1.6238691816576014 pbc="F F F"
Dy       0.00000000       0.00000000       0.00000000       0.00000000       0.00000000      -1.31634796
Dy       0.00000000       0.00000000       2.84141414       0.00000000       0.00000000       1.31634796
2
Properties=species:S:1:pos:R:3:forces:R:3 energy=-1.6990247172068964 pbc="F F F"
Dy       0.00000000       0.00000000       0.00000000       0.00000000       0.00000000      -1.20185339
Dy       0.00000000       0.00000000       2.90101010       0.00000000       0.00000000       1.20185339
2
Properties=species:S:1:pos:R:3:forces:R:3 energy=-1.7665841653394176 pbc="F F F"
Dy       0.00000000       0.00000000       0.00000000       0.00000000       0.00000000      -1.06043088
Dy       0.00000000       0.00000000       2.96060606       0.00000000       0.00000000       1.06043088
2
Properties=species:S:1:pos:R:3:forces:R:3 energy=-1.8247955541317518 pbc="F F F"
Dy       0.00000000       0.00000000       0.00000000       0.00000000       0.00000000      -0.88781261
Dy       0.00000000       0.00000000       3.02020202       0.00000000       0.00000000       0.88781261
2
Properties=species:S:1:pos:R:3:forces:R:3 energy=-1.8717932090049259 pbc="F F F"
Dy       0.00000000       0.00000000       0.00000000       0.00000000       0.00000000      -0.68463171
Dy       0.00000000       0.00000000       3.07979798       0.00000000       0.00000000       0.68463171
2
Properties=species:S:1:pos:R:3:forces:R:3 energy=-1.9059187908447661 pbc="F F F"
Dy       0.00000000       0.00000000       0.00000000       0.00000000       0.00000000      -0.45745307
Dy       0.00000000       0.00000000       3.13939394       0.00000000       0.00000000       0.45745307
2
Properties=species:S:1:pos:R:3:forces:R:3 energy=-1.9260712818047292 pbc="F F F"
Dy       0.00000000       0.00000000       0.00000000       0.00000000       0.00000000      -0.21798353
Dy       0.00000000       0.00000000       3.19898990       0.00000000       0.00000000       0.21798353
2
Properties=species:S:1:pos:R:3:forces:R:3 energy=-1.931945183305406 pbc="F F F"
Dy       0.00000000       0.00000000       0.00000000       0.00000000       0.00000000       0.01920523
Dy       0.00000000       0.00000000       3.25858586       0.00000000       0.00000000      -0.01920523
2
Properties=species:S:1:pos:R:3:forces:R:3 energy=-1.924117609675932 pbc="F F F"
Dy       0.00000000       0.00000000       0.00000000       0.00000000       0.00000000       0.23960419
Dy       0.00000000       0.00000000       3.31818182       0.00000000       0.00000000      -0.23960419
2
Properties=species:S:1:pos:R:3:forces:R:3 energy=-1.9039578059673161 pbc="F F F"
Dy       0.00000000       0.00000000       0.00000000       0.00000000       0.00000000       0.43139970
Dy       0.00000000       0.00000000       3.37777778       0.00000000       0.00000000      -0.43139970
2
Properties=species:S:1:pos:R:3:forces:R:3 energy=-1.8734179253138923 pbc="F F F"
Dy       0.00000000       0.00000000       0.00000000       0.00000000       0.00000000       0.58711964
Dy       0.00000000       0.00000000       3.43737374       0.00000000       0.00000000      -0.58711964
2
Properties=species:S:1:pos:R:3:forces:R:3 energy=-1.834750533427355 pbc="F F F"
Dy       0.00000000       0.00000000       0.00000000       0.00000000       0.00000000       0.70408577
Dy       0.00000000       0.00000000       3.49696970       0.00000000       0.00000000      -0.70408577
2
Properties=species:S:1:pos:R:3:forces:R:3 energy=-1.7902387797857553 pbc="F F F"
Dy       0.00000000       0.00000000       0.00000000       0.00000000       0.00000000       0.78376096
Dy       0.00000000       0.00000000       3.55656566       0.00000000       0.00000000      -0.78376096
2
Properties=species:S:1:pos:R:3:forces:R:3 energy=-1.7419877630419212 pbc="F F F"
Dy       0.00000000       0.00000000       0.00000000       0.00000000       0.00000000       0.83049381
Dy       0.00000000       0.00000000       3.61616162       0.00000000       0.00000000      -0.83049381
2
Properties=species:S:1:pos:R:3:forces:R:3 energy=-1.6917883668321934 pbc="F F F"
Dy       0.00000000       0.00000000       0.00000000       0.00000000       0.00000000       0.85021234
Dy       0.00000000       0.00000000       3.67575758       0.00000000       0.00000000      -0.85021234
2
Properties=species:S:1:pos:R:3:forces:R:3 energy=-1.641053903294944 pbc="F F F"
Dy       0.00000000       0.00000000       0.00000000       0.00000000       0.00000000       0.84957910
Dy       0.00000000       0.00000000       3.73535354       0.00000000       0.00000000      -0.84957910
2
Properties=species:S:1:pos:R:3:forces:R:3 energy=-1.5907915741970078 pbc="F F F"
Dy       0.00000000       0.00000000       0.00000000       0.00000000       0.00000000       0.83552945
Dy       0.00000000       0.00000000       3.79494949       0.00000000       0.00000000      -0.83552945
2
Properties=species:S:1:pos:R:3:forces:R:3 energy=-1.5415983389583165 pbc="F F F"
Dy       0.00000000       0.00000000       0.00000000       0.00000000       0.00000000       0.81475848
Dy       0.00000000       0.00000000       3.85454545       0.00000000       0.00000000      -0.81475848
2
Properties=species:S:1:pos:R:3:forces:R:3 energy=-1.493698721835668 pbc="F F F"
Dy       0.00000000       0.00000000       0.00000000       0.00000000       0.00000000       0.79293102
Dy       0.00000000       0.00000000       3.91414141       0.00000000       0.00000000      -0.79293102
2
Properties=species:S:1:pos:R:3:forces:R:3 energy=-1.4470316723132517 pbc="F F F"
Dy       0.00000000       0.00000000       0.00000000       0.00000000       0.00000000       0.77380735
Dy       0.00000000       0.00000000       3.97373737       0.00000000       0.00000000      -0.77380735
2
Properties=species:S:1:pos:R:3:forces:R:3 energy=-1.4013844192958316 pbc="F F F"
Dy       0.00000000       0.00000000       0.00000000       0.00000000       0.00000000       0.75877744
Dy       0.00000000       0.00000000       4.03333333       0.00000000       0.00000000      -0.75877744
2
Properties=species:S:1:pos:R:3:forces:R:3 energy=-1.3565239958010356 pbc="F F F"
Dy       0.00000000       0.00000000       0.00000000       0.00000000       0.00000000       0.74710500
Dy       0.00000000       0.00000000       4.09292929       0.00000000       0.00000000      -0.74710500
2
Properties=species:S:1:pos:R:3:forces:R:3 energy=-1.312309535278064 pbc="F F F"
Dy       0.00000000       0.00000000       0.00000000       0.00000000       0.00000000       0.73671043
Dy       0.00000000       0.00000000       4.15252525       0.00000000       0.00000000      -0.73671043
2
Properties=species:S:1:pos:R:3:forces:R:3 energy=-1.2687386820351914 pbc="F F F"
Dy       0.00000000       0.00000000       0.00000000       0.00000000       0.00000000       0.72512728
Dy       0.00000000       0.00000000       4.21212121       0.00000000       0.00000000      -0.72512728
2
Properties=species:S:1:pos:R:3:forces:R:3 energy=-1.225945709233709 pbc="F F F"
Dy       0.00000000       0.00000000       0.00000000       0.00000000       0.00000000       0.71026158
Dy       0.00000000       0.00000000       4.27171717       0.00000000       0.00000000      -0.71026158
2
Properties=species:S:1:pos:R:3:forces:R:3 energy=-1.18417276527452 pbc="F F F"
Dy       0.00000000       0.00000000       0.00000000       0.00000000       0.00000000       0.69081378
Dy       0.00000000       0.00000000       4.33131313       0.00000000       0.00000000      -0.69081378
2
Properties=species:S:1:pos:R:3:forces:R:3 energy=-1.143706354253741 pbc="F F F"
Dy       0.00000000       0.00000000       0.00000000       0.00000000       0.00000000       0.66638821
Dy       0.00000000       0.00000000       4.39090909       0.00000000       0.00000000      -0.66638821
2
Properties=species:S:1:pos:R:3:forces:R:3 energy=-1.104834929133843 pbc="F F F"
Dy       0.00000000       0.00000000       0.00000000       0.00000000       0.00000000       0.63741255
Dy       0.00000000       0.00000000       4.45050505       0.00000000       0.00000000      -0.63741255
2
Properties=species:S:1:pos:R:3:forces:R:3 energy=-1.0678020309895222 pbc="F F F"
Dy       0.00000000       0.00000000       0.00000000       0.00000000       0.00000000       0.60492367
Dy       0.00000000       0.00000000       4.51010101       0.00000000       0.00000000      -0.60492367
2
Properties=species:S:1:pos:R:3:forces:R:3 energy=-1.0327754543994176 pbc="F F F"
Dy       0.00000000       0.00000000       0.00000000       0.00000000       0.00000000       0.57027382
Dy       0.00000000       0.00000000       4.56969697       0.00000000       0.00000000      -0.57027382
2
Properties=species:S:1:pos:R:3:forces:R:3 energy=-0.9998447578902717 pbc="F F F"
Dy       0.00000000       0.00000000       0.00000000       0.00000000       0.00000000       0.53484273
Dy       0.00000000       0.00000000       4.62929293       0.00000000       0.00000000      -0.53484273
2
Properties=species:S:1:pos:R:3:forces:R:3 energy=-0.9690194403675666 pbc="F F F"
Dy       0.00000000       0.00000000       0.00000000       0.00000000       0.00000000       0.49979973
Dy       0.00000000       0.00000000       4.68888889       0.00000000       0.00000000      -0.49979973
2
Properties=species:S:1:pos:R:3:forces:R:3 energy=-0.9402476618937349 pbc="F F F"
Dy       0.00000000       0.00000000       0.00000000       0.00000000       0.00000000       0.46600157
Dy       0.00000000       0.00000000       4.74848485       0.00000000       0.00000000      -0.46600157
2
Properties=species:S:1:pos:R:3:forces:R:3 energy=-0.9134396824007384 pbc="F F F"
Dy       0.00000000       0.00000000       0.00000000       0.00000000       0.00000000       0.43401620
Dy       0.00000000       0.00000000       4.80808081       0.00000000       0.00000000      -0.43401620
2
Properties=species:S:1:pos:R:3:forces:R:3 energy=-0.8884728670643351 pbc="F F F"
Dy       0.00000000       0.00000000       0.00000000       0.00000000       0.00000000       0.40422279
Dy       0.00000000       0.00000000       4.86767677       0.00000000       0.00000000      -0.40422279
2
Properties=species:S:1:pos:R:3:forces:R:3 energy=-0.8652093724604915 pbc="F F F"
Dy       0.00000000       0.00000000       0.00000000       0.00000000       0.00000000       0.37690440
Dy       0.00000000       0.00000000       4.92727273       0.00000000       0.00000000      -0.37690440
2
Properties=species:S:1:pos:R:3:forces:R:3 energy=-0.8434954744912019 pbc="F F F"
Dy       0.00000000       0.00000000       0.00000000       0.00000000       0.00000000       0.35224348
Dy       0.00000000       0.00000000       4.98686869       0.00000000       0.00000000      -0.35224348
2
Properties=species:S:1:pos:R:3:forces:R:3 energy=-0.8231739419759779 pbc="F F F"
Dy       0.00000000       0.00000000       0.00000000       0.00000000       0.00000000       0.33022767
Dy       0.00000000       0.00000000       5.04646465       0.00000000       0.00000000      -0.33022767
2
Properties=species:S:1:pos:R:3:forces:R:3 energy=-0.8040898413090642 pbc="F F F"
Dy       0.00000000       0.00000000       0.00000000       0.00000000       0.00000000       0.31055173
Dy       0.00000000       0.00000000       5.10606061       0.00000000       0.00000000      -0.31055173
2
Properties=species:S:1:pos:R:3:forces:R:3 energy=-0.7861219175969657 pbc="F F F"
Dy       0.00000000       0.00000000       0.00000000       0.00000000       0.00000000       0.29257596
Dy       0.00000000       0.00000000       5.16565657       0.00000000       0.00000000      -0.29257596
2
Properties=species:S:1:pos:R:3:forces:R:3 energy=-0.7692004216149274 pbc="F F F"
Dy       0.00000000       0.00000000       0.00000000       0.00000000       0.00000000       0.27537286
Dy       0.00000000       0.00000000       5.22525253       0.00000000       0.00000000      -0.27537286
2
Properties=species:S:1:pos:R:3:forces:R:3 energy=-0.753306104279512 pbc="F F F"
Dy       0.00000000       0.00000000       0.00000000       0.00000000       0.00000000       0.25792405
Dy       0.00000000       0.00000000       5.28484848       0.00000000       0.00000000      -0.25792405
2
Properties=species:S:1:pos:R:3:forces:R:3 energy=-0.738480811020235 pbc="F F F"
Dy       0.00000000       0.00000000       0.00000000       0.00000000       0.00000000       0.23932987
Dy       0.00000000       0.00000000       5.34444444       0.00000000       0.00000000      -0.23932987
2
Properties=species:S:1:pos:R:3:forces:R:3 energy=-0.7248140721503842 pbc="F F F"
Dy       0.00000000       0.00000000       0.00000000       0.00000000       0.00000000       0.21898896
Dy       0.00000000       0.00000000       5.40404040       0.00000000       0.00000000      -0.21898896
2
Properties=species:S:1:pos:R:3:forces:R:3 energy=-0.7124148807756657 pbc="F F F"
Dy       0.00000000       0.00000000       0.00000000       0.00000000       0.00000000       0.19674310
Dy       0.00000000       0.00000000       5.46363636       0.00000000       0.00000000      -0.19674310
2
Properties=species:S:1:pos:R:3:forces:R:3 energy=-0.7013991530600701 pbc="F F F"
Dy       0.00000000       0.00000000       0.00000000       0.00000000       0.00000000       0.17287442
Dy       0.00000000       0.00000000       5.52323232       0.00000000       0.00000000      -0.17287442
2
Properties=species:S:1:pos:R:3:forces:R:3 energy=-0.6918319612376421 pbc="F F F"
Dy       0.00000000       0.00000000       0.00000000       0.00000000       0.00000000       0.14807278
Dy       0.00000000       0.00000000       5.58282828       0.00000000       0.00000000      -0.14807278
2
Properties=species:S:1:pos:R:3:forces:R:3 energy=-0.6837490053717833 pbc="F F F"
Dy       0.00000000       0.00000000       0.00000000       0.00000000       0.00000000       0.12331180
Dy       0.00000000       0.00000000       5.64242424       0.00000000       0.00000000      -0.12331180
2
Properties=species:S:1:pos:R:3:forces:R:3 energy=-0.6771088763704303 pbc="F F F"
Dy       0.00000000       0.00000000       0.00000000       0.00000000       0.00000000       0.09968838
Dy       0.00000000       0.00000000       5.70202020       0.00000000       0.00000000      -0.09968838
2
Properties=species:S:1:pos:R:3:forces:R:3 energy=-0.6718223739676885 pbc="F F F"
Dy       0.00000000       0.00000000       0.00000000       0.00000000       0.00000000       0.07832147
Dy       0.00000000       0.00000000       5.76161616       0.00000000       0.00000000      -0.07832147
2
Properties=species:S:1:pos:R:3:forces:R:3 energy=-0.6677105260469771 pbc="F F F"
Dy       0.00000000       0.00000000       0.00000000       0.00000000       0.00000000       0.06022983
Dy       0.00000000       0.00000000       5.82121212       0.00000000       0.00000000      -0.06022983
2
Properties=species:S:1:pos:R:3:forces:R:3 energy=-0.6645626334775983 pbc="F F F"
Dy       0.00000000       0.00000000       0.00000000       0.00000000       0.00000000       0.04628982
Dy       0.00000000       0.00000000       5.88080808       0.00000000       0.00000000      -0.04628982
2
Properties=species:S:1:pos:R:3:forces:R:3 energy=-0.6620954371812668 pbc="F F F"
Dy       0.00000000       0.00000000       0.00000000       0.00000000       0.00000000       0.03720467
Dy       0.00000000       0.00000000       5.94040404       0.00000000       0.00000000      -0.03720467
2
Properties=species:S:1:pos:R:3:forces:R:3 energy=-0.6600183388687604 pbc="F F F"
Dy       0.00000000       0.00000000       0.00000000       0.00000000       0.00000000       0.03349671
Dy       0.00000000       0.00000000       6.00000000       0.00000000       0.00000000      -0.03349671
