2
Properties=species:S:1:pos:R:3:forces:R:3 energy=13333.84585688027 pbc="F F F"
Dy       0.00000000       0.00000000       0.00000000       0.00000000       0.00000000 -230538.93750000
Dy       0.00000000       0.00000000       0.18000000       0.00000000       0.00000000  230538.93750000
2
Properties=species:S:1:pos:R:3:forces:R:3 energy=5240.796052192771 pbc="F F F"
Dy       0.00000000       0.00000000       0.00000000       0.00000000       0.00000000  -77083.21093750
Dy       0.00000000       0.00000000       0.23878788       0.00000000       0.00000000   77083.21093750
2
Properties=species:S:1:pos:R:3:forces:R:3 energy=2323.7320873490207 pbc="F F F"
Dy       0.00000000       0.00000000       0.00000000       0.00000000       0.00000000  -30340.02148438
Dy       0.00000000       0.00000000       0.29757576       0.00000000       0.00000000   30340.02148438
2
Properties=species:S:1:pos:R:3:forces:R:3 energy=1120.7324535726295 pbc="F F F"
Dy       0.00000000       0.00000000       0.00000000       0.00000000       0.00000000  -13212.98144531
Dy       0.00000000       0.00000000       0.35636364       0.00000000       0.00000000   13212.98144531
2
Properties=species:S:1:pos:R:3:forces:R:3 energy=579.3638012288795 pbc="F F F"
Dy       0.00000000       0.00000000       0.00000000       0.00000000       0.00000000   -6182.34863281
Dy       0.00000000       0.00000000       0.41515152       0.00000000       0.00000000    6182.34863281
2
Properties=species:S:1:pos:R:3:forces:R:3 energy=319.3565990931134 pbc="F F F"
Dy       0.00000000       0.00000000       0.00000000       0.00000000       0.00000000   -3063.90014648
Dy       0.00000000       0.00000000       0.47393939       0.00000000       0.00000000    3063.90014648
2
Properties=species:S:1:pos:R:3:forces:R:3 energy=187.57360960383153 pbc="F F F"
Dy       0.00000000       0.00000000       0.00000000       0.00000000       0.00000000   -1595.21252441
Dy       0.00000000       0.00000000       0.53272727       0.00000000       0.00000000    1595.21252441
2
Properties=species:S:1:pos:R:3:forces:R:3 energy=117.59304933911103 pbc="F F F"
Dy       0.00000000       0.00000000       0.00000000       0.00000000       0.00000000    -866.99536133
Dy       0.00000000       0.00000000       0.59151515       0.00000000       0.00000000     866.99536133
2
Properties=species:S:1:pos:R:3:forces:R:3 energy=78.90546546645633 pbc="F F F"
Dy       0.00000000       0.00000000       0.00000000       0.00000000       0.00000000    -488.75152588
Dy       0.00000000       0.00000000       0.65030303       0.00000000       0.00000000     488.75152588
2
Properties=species:S:1:pos:R:3:forces:R:3 energy=56.78600065554521 pbc="F F F"
Dy       0.00000000       0.00000000       0.00000000       0.00000000       0.00000000    -283.90216064
Dy       0.00000000       0.00000000       0.70909091       0.00000000       0.00000000     283.90216064
2
Properties=species:S:1:pos:R:3:forces:R:3 energy=43.78741220757508 pbc="F F F"
Dy       0.00000000       0.00000000       0.00000000       0.00000000       0.00000000    -169.06379700
Dy       0.00000000       0.00000000       0.76787879       0.00000000       0.00000000     169.06379700
2
Properties=species:S:1:pos:R:3:forces:R:3 energy=35.95758601732137 pbc="F F F"
Dy       0.00000000       0.00000000       0.00000000       0.00000000       0.00000000    -103.36677551
Dy       0.00000000       0.00000000       0.82666667       0.00000000       0.00000000     103.36677551
2
Properties=species:S:1:pos:R:3:forces:R:3 energy=31.0824336955278 pbc="F F F"
Dy       0.00000000       0.00000000       0.00000000       0.00000000       0.00000000     -66.12561798
Dy       0.00000000       0.00000000       0.88545455       0.00000000       0.00000000      66.12561798
2
Properties=species:S:1:pos:R:3:forces:R:3 energy=27.840469684771346 pbc="F F F"
Dy       0.00000000       0.00000000       0.00000000       0.00000000       0.00000000     -46.50262070
Dy       0.00000000       0.00000000       0.94424242       0.00000000       0.00000000      46.50262070
2
Properties=species:S:1:pos:R:3:forces:R:3 energy=25.390099377706093 pbc="F F F"
Dy       0.00000000       0.00000000       0.00000000       0.00000000       0.00000000     -38.41183853
Dy       0.00000000       0.00000000       1.00303030       0.00000000       0.00000000      38.41183853
2
Properties=species:S:1:pos:R:3:forces:R:3 energy=23.177211293619155 pbc="F F F"
Dy       0.00000000       0.00000000       0.00000000       0.00000000       0.00000000     -37.84304047
Dy       0.00000000       0.00000000       1.06181818       0.00000000       0.00000000      37.84304047
2
Properties=species:S:1:pos:R:3:forces:R:3 energy=20.85731924662342 pbc="F F F"
Dy       0.00000000       0.00000000       0.00000000       0.00000000       0.00000000     -41.54251480
Dy       0.00000000       0.00000000       1.12060606       0.00000000       0.00000000      41.54251480
2
Properties=species:S:1:pos:R:3:forces:R:3 energy=18.264197879397013 pbc="F F F"
Dy       0.00000000       0.00000000       0.00000000       0.00000000       0.00000000     -46.73022079
Dy       0.00000000       0.00000000       1.17939394       0.00000000       0.00000000      46.73022079
2
Properties=species:S:1:pos:R:3:forces:R:3 energy=15.373294884677916 pbc="F F F"
Dy       0.00000000       0.00000000       0.00000000       0.00000000       0.00000000     -51.41944122
Dy       0.00000000       0.00000000       1.23818182       0.00000000       0.00000000      51.41944122
2
Properties=species:S:1:pos:R:3:forces:R:3 energy=12.253816588958122 pbc="F F F"
Dy       0.00000000       0.00000000       0.00000000       0.00000000       0.00000000     -54.29181290
Dy       0.00000000       0.00000000       1.29696970       0.00000000       0.00000000      54.29181290
2
Properties=species:S:1:pos:R:3:forces:R:3 energy=9.056113626272781 pbc="F F F"
Dy       0.00000000       0.00000000       0.00000000       0.00000000       0.00000000     -53.78315353
Dy       0.00000000       0.00000000       1.35575758       0.00000000       0.00000000      53.78315353
2
Properties=species:S:1:pos:R:3:forces:R:3 energy=6.022532886945623 pbc="F F F"
Dy       0.00000000       0.00000000       0.00000000       0.00000000       0.00000000     -48.66986084
Dy       0.00000000       0.00000000       1.41454545       0.00000000       0.00000000      48.66986084
2
Properties=species:S:1:pos:R:3:forces:R:3 energy=3.4012276820332334 pbc="F F F"
Dy       0.00000000       0.00000000       0.00000000       0.00000000       0.00000000     -40.12443161
Dy       0.00000000       0.00000000       1.47333333       0.00000000       0.00000000      40.12443161
2
Properties=species:S:1:pos:R:3:forces:R:3 energy=1.3431339326721918 pbc="F F F"
Dy       0.00000000       0.00000000       0.00000000       0.00000000       0.00000000     -29.50548553
Dy       0.00000000       0.00000000       1.53212121       0.00000000       0.00000000      29.50548553
2
Properties=species:S:1:pos:R:3:forces:R:3 energy=-0.011797720584894492 pbc="F F F"
Dy       0.00000000       0.00000000       0.00000000       0.00000000       0.00000000     -16.16687202
Dy       0.00000000       0.00000000       1.59090909       0.00000000       0.00000000      16.16687202
2
Properties=species:S:1:pos:R:3:forces:R:3 energy=-0.5546044922058972 pbc="F F F"
Dy       0.00000000       0.00000000       0.00000000       0.00000000       0.00000000      -2.83777332
Dy       0.00000000       0.00000000       1.64969697       0.00000000       0.00000000       2.83777332
2
Properties=species:S:1:pos:R:3:forces:R:3 energy=-0.46734874573056423 pbc="F F F"
Dy       0.00000000       0.00000000       0.00000000       0.00000000       0.00000000       4.50427103
Dy       0.00000000       0.00000000       1.70848485       0.00000000       0.00000000      -4.50427103
2
Properties=species:S:1:pos:R:3:forces:R:3 energy=-0.1638113252856484 pbc="F F F"
Dy       0.00000000       0.00000000       0.00000000       0.00000000       0.00000000       4.93373966
Dy       0.00000000       0.00000000       1.76727273       0.00000000       0.00000000      -4.93373966
2
Properties=species:S:1:pos:R:3:forces:R:3 energy=0.05146718799463522 pbc="F F F"
Dy       0.00000000       0.00000000       0.00000000       0.00000000       0.00000000       2.20025802
Dy       0.00000000       0.00000000       1.82606061       0.00000000       0.00000000      -2.20025802
2
Properties=species:S:1:pos:R:3:forces:R:3 energy=0.09917967019764909 pbc="F F F"
Dy       0.00000000       0.00000000       0.00000000       0.00000000       0.00000000      -0.39303660
Dy       0.00000000       0.00000000       1.88484848       0.00000000       0.00000000       0.39303660
2
Properties=species:S:1:pos:R:3:forces:R:3 energy=0.03163752626099034 pbc="F F F"
Dy       0.00000000       0.00000000       0.00000000       0.00000000       0.00000000      -1.69523025
Dy       0.00000000       0.00000000       1.94363636       0.00000000       0.00000000       1.69523025
2
Properties=species:S:1:pos:R:3:forces:R:3 energy=-0.08237906285501484 pbc="F F F"
Dy       0.00000000       0.00000000       0.00000000       0.00000000       0.00000000      -2.09358191
Dy       0.00000000       0.00000000       2.00242424       0.00000000       0.00000000       2.09358191
2
Properties=species:S:1:pos:R:3:forces:R:3 energy=-0.20884476316954562 pbc="F F F"
Dy       0.00000000       0.00000000       0.00000000       0.00000000       0.00000000      -2.18647099
Dy       0.00000000       0.00000000       2.06121212       0.00000000       0.00000000       2.18647099
2
Properties=species:S:1:pos:R:3:forces:R:3 energy=-0.33793855516476357 pbc="F F F"
Dy       0.00000000       0.00000000       0.00000000       0.00000000       0.00000000      -2.19680357
Dy       0.00000000       0.00000000       2.12000000       0.00000000       0.00000000       2.19680357
2
Properties=species:S:1:pos:R:3:forces:R:3 energy=-0.46629360620407767 pbc="F F F"
Dy       0.00000000       0.00000000       0.00000000       0.00000000       0.00000000      -2.16372204
Dy       0.00000000       0.00000000       2.17878788       0.00000000       0.00000000       2.16372204
2
Properties=species:S:1:pos:R:3:forces:R:3 energy=-0.5917379272795549 pbc="F F F"
Dy       0.00000000       0.00000000       0.00000000       0.00000000       0.00000000      -2.09999633
Dy       0.00000000       0.00000000       2.23757576       0.00000000       0.00000000       2.09999633
2
Properties=species:S:1:pos:R:3:forces:R:3 energy=-0.7128706651829907 pbc="F F F"
Dy       0.00000000       0.00000000       0.00000000       0.00000000       0.00000000      -2.01937652
Dy       0.00000000       0.00000000       2.29636364       0.00000000       0.00000000       2.01937652
2
Properties=species:S:1:pos:R:3:forces:R:3 energy=-0.8290919979870622 pbc="F F F"
Dy       0.00000000       0.00000000       0.00000000       0.00000000       0.00000000      -1.93470979
Dy       0.00000000       0.00000000       2.35515152       0.00000000       0.00000000       1.93470979
2
Properties=species:S:1:pos:R:3:forces:R:3 energy=-0.9404320786343136 pbc="F F F"
Dy       0.00000000       0.00000000       0.00000000       0.00000000       0.00000000      -1.85427129
Dy       0.00000000       0.00000000       2.41393939       0.00000000       0.00000000       1.85427129
2
Properties=species:S:1:pos:R:3:forces:R:3 energy=-1.0472485115625978 pbc="F F F"
Dy       0.00000000       0.00000000       0.00000000       0.00000000       0.00000000      -1.78079951
Dy       0.00000000       0.00000000       2.47272727       0.00000000       0.00000000       1.78079951
2
Properties=species:S:1:pos:R:3:forces:R:3 energy=-1.149922705053812 pbc="F F F"
Dy       0.00000000       0.00000000       0.00000000       0.00000000       0.00000000      -1.71289670
Dy       0.00000000       0.00000000       2.53151515       0.00000000       0.00000000       1.71289670
2
Properties=species:S:1:pos:R:3:forces:R:3 energy=-1.248688751466441 pbc="F F F"
Dy       0.00000000       0.00000000       0.00000000       0.00000000       0.00000000      -1.64728785
Dy       0.00000000       0.00000000       2.59030303       0.00000000       0.00000000       1.64728785
2
Properties=species:S:1:pos:R:3:forces:R:3 energy=-1.3435821151399994 pbc="F F F"
Dy       0.00000000       0.00000000       0.00000000       0.00000000       0.00000000      -1.58061051
Dy       0.00000000       0.00000000       2.64909091       0.00000000       0.00000000       1.58061051
2
Properties=species:S:1:pos:R:3:forces:R:3 energy=-1.4344531969114653 pbc="F F F"
Dy       0.00000000       0.00000000       0.00000000       0.00000000       0.00000000      -1.51000237
Dy       0.00000000       0.00000000       2.70787879       0.00000000       0.00000000       1.51000237
2
Properties=species:S:1:pos:R:3:forces:R:3 energy=-1.5209854590949838 pbc="F F F"
Dy       0.00000000       0.00000000       0.00000000       0.00000000       0.00000000      -1.43238854
Dy       0.00000000       0.00000000       2.76666667       0.00000000       0.00000000       1.43238854
2
Properties=species:S:1:pos:R:3:forces:R:3 energy=-1.60264332585464 pbc="F F F"
Dy       0.00000000       0.00000000       0.00000000       0.00000000       0.00000000      -1.34329641
Dy       0.00000000       0.00000000       2.82545455       0.00000000       0.00000000       1.34329641
2
Properties=species:S:1:pos:R:3:forces:R:3 energy=-1.6785781955991403 pbc="F F F"
Dy       0.00000000       0.00000000       0.00000000       0.00000000       0.00000000      -1.23651946
Dy       0.00000000       0.00000000       2.88424242       0.00000000       0.00000000       1.23651946
2
Properties=species:S:1:pos:R:3:forces:R:3 energy=-1.7475473153084737 pbc="F F F"
Dy       0.00000000       0.00000000       0.00000000       0.00000000       0.00000000      -1.10526633
Dy       0.00000000       0.00000000       2.94303030       0.00000000       0.00000000       1.10526633
2
Properties=species:S:1:pos:R:3:forces:R:3 energy=-1.807949784075261 pbc="F F F"
Dy       0.00000000       0.00000000       0.00000000       0.00000000       0.00000000      -0.94446474
Dy       0.00000000       0.00000000       3.00181818       0.00000000       0.00000000       0.94446474
2
Properties=species:S:1:pos:R:3:forces:R:3 energy=-1.8579914528942598 pbc="F F F"
Dy       0.00000000       0.00000000       0.00000000       0.00000000       0.00000000      -0.75311744
Dy       0.00000000       0.00000000       3.06060606       0.00000000       0.00000000       0.75311744
2
Properties=species:S:1:pos:R:3:forces:R:3 energy=-1.8959841319796586 pbc="F F F"
Dy       0.00000000       0.00000000       0.00000000       0.00000000       0.00000000      -0.53573191
Dy       0.00000000       0.00000000       3.11939394       0.00000000       0.00000000       0.53573191
2
Properties=species:S:1:pos:R:3:forces:R:3 energy=-1.9206608716574556 pbc="F F F"
Dy       0.00000000       0.00000000       0.00000000       0.00000000       0.00000000      -0.30210629
Dy       0.00000000       0.00000000       3.17818182       0.00000000       0.00000000       0.30210629
2
Properties=species:S:1:pos:R:3:forces:R:3 energy=-1.931447866083636 pbc="F F F"
Dy       0.00000000       0.00000000       0.00000000       0.00000000       0.00000000      -0.06561249
Dy       0.00000000       0.00000000       3.23696970       0.00000000       0.00000000       0.06561249
2
Properties=species:S:1:pos:R:3:forces:R:3 energy=-1.9285995553830995 pbc="F F F"
Dy       0.00000000       0.00000000       0.00000000       0.00000000       0.00000000       0.15947889
Dy       0.00000000       0.00000000       3.29575758       0.00000000       0.00000000      -0.15947889
2
Properties=species:S:1:pos:R:3:forces:R:3 energy=-1.9131686736077123 pbc="F F F"
Dy       0.00000000       0.00000000       0.00000000       0.00000000       0.00000000       0.36061981
Dy       0.00000000       0.00000000       3.35454545       0.00000000       0.00000000      -0.36061981
2
Properties=species:S:1:pos:R:3:forces:R:3 energy=-1.886845823542842 pbc="F F F"
Dy       0.00000000       0.00000000       0.00000000       0.00000000       0.00000000       0.52892250
Dy       0.00000000       0.00000000       3.41333333       0.00000000       0.00000000      -0.52892250
2
Properties=species:S:1:pos:R:3:forces:R:3 energy=-1.851712155445406 pbc="F F F"
Dy       0.00000000       0.00000000       0.00000000       0.00000000       0.00000000       0.66001606
Dy       0.00000000       0.00000000       3.47212121       0.00000000       0.00000000      -0.66001606
2
Properties=species:S:1:pos:R:3:forces:R:3 energy=-1.809977106606858 pbc="F F F"
Dy       0.00000000       0.00000000       0.00000000       0.00000000       0.00000000       0.75380284
Dy       0.00000000       0.00000000       3.53090909       0.00000000       0.00000000      -0.75380284
2
Properties=species:S:1:pos:R:3:forces:R:3 energy=-1.7637535041089625 pbc="F F F"
Dy       0.00000000       0.00000000       0.00000000       0.00000000       0.00000000       0.81345201
Dy       0.00000000       0.00000000       3.58969697       0.00000000       0.00000000      -0.81345201
2
Properties=species:S:1:pos:R:3:forces:R:3 energy=-1.7149026180899538 pbc="F F F"
Dy       0.00000000       0.00000000       0.00000000       0.00000000       0.00000000       0.84412676
Dy       0.00000000       0.00000000       3.64848485       0.00000000       0.00000000      -0.84412676
2
Properties=species:S:1:pos:R:3:forces:R:3 energy=-1.664952528723772 pbc="F F F"
Dy       0.00000000       0.00000000       0.00000000       0.00000000       0.00000000       0.85197526
Dy       0.00000000       0.00000000       3.70727273       0.00000000       0.00000000      -0.85197526
2
Properties=species:S:1:pos:R:3:forces:R:3 energy=-1.6150494306411753 pbc="F F F"
Dy       0.00000000       0.00000000       0.00000000       0.00000000       0.00000000       0.84357911
Dy       0.00000000       0.00000000       3.76606061       0.00000000       0.00000000      -0.84357911
2
Properties=species:S:1:pos:R:3:forces:R:3 energy=-1.5659559104827443 pbc="F F F"
Dy       0.00000000       0.00000000       0.00000000       0.00000000       0.00000000       0.82555962
Dy       0.00000000       0.00000000       3.82484848       0.00000000       0.00000000      -0.82555962
2
Properties=species:S:1:pos:R:3:forces:R:3 energy=-1.51805295844961 pbc="F F F"
Dy       0.00000000       0.00000000       0.00000000       0.00000000       0.00000000       0.80394936
Dy       0.00000000       0.00000000       3.88363636       0.00000000       0.00000000      -0.80394936
2
Properties=species:S:1:pos:R:3:forces:R:3 energy=-1.4714092439078783 pbc="F F F"
Dy       0.00000000       0.00000000       0.00000000       0.00000000       0.00000000       0.78337669
Dy       0.00000000       0.00000000       3.94242424       0.00000000       0.00000000      -0.78337669
2
Properties=species:S:1:pos:R:3:forces:R:3 energy=-1.4258765006592484 pbc="F F F"
Dy       0.00000000       0.00000000       0.00000000       0.00000000       0.00000000       0.76637268
Dy       0.00000000       0.00000000       4.00121212       0.00000000       0.00000000      -0.76637268
2
Properties=species:S:1:pos:R:3:forces:R:3 energy=-1.3812255015588348 pbc="F F F"
Dy       0.00000000       0.00000000       0.00000000       0.00000000       0.00000000       0.75324416
Dy       0.00000000       0.00000000       4.06000000       0.00000000       0.00000000      -0.75324416
2
Properties=species:S:1:pos:R:3:forces:R:3 energy=-1.3372641263969751 pbc="F F F"
Dy       0.00000000       0.00000000       0.00000000       0.00000000       0.00000000       0.74258310
Dy       0.00000000       0.00000000       4.11878788       0.00000000       0.00000000      -0.74258310
2
Properties=species:S:1:pos:R:3:forces:R:3 energy=-1.2939115480911976 pbc="F F F"
Dy       0.00000000       0.00000000       0.00000000       0.00000000       0.00000000       0.73212153
Dy       0.00000000       0.00000000       4.17757576       0.00000000       0.00000000      -0.73212153
2
Properties=species:S:1:pos:R:3:forces:R:3 energy=-1.2512253312088142 pbc="F F F"
Dy       0.00000000       0.00000000       0.00000000       0.00000000       0.00000000       0.71957064
Dy       0.00000000       0.00000000       4.23636364       0.00000000       0.00000000      -0.71957064
2
Properties=species:S:1:pos:R:3:forces:R:3 energy=-1.2093820008527245 pbc="F F F"
Dy       0.00000000       0.00000000       0.00000000       0.00000000       0.00000000       0.70320344
Dy       0.00000000       0.00000000       4.29515152       0.00000000       0.00000000      -0.70320344
2
Properties=species:S:1:pos:R:3:forces:R:3 energy=-1.1686392176386655 pbc="F F F"
Dy       0.00000000       0.00000000       0.00000000       0.00000000       0.00000000       0.68211848
Dy       0.00000000       0.00000000       4.35393939       0.00000000       0.00000000      -0.68211848
2
Properties=species:S:1:pos:R:3:forces:R:3 energy=-1.1292762594135535 pbc="F F F"
Dy       0.00000000       0.00000000       0.00000000       0.00000000       0.00000000       0.65626276
Dy       0.00000000       0.00000000       4.41272727       0.00000000       0.00000000      -0.65626276
2
Properties=species:S:1:pos:R:3:forces:R:3 energy=-1.0915590661751733 pbc="F F F"
Dy       0.00000000       0.00000000       0.00000000       0.00000000       0.00000000       0.62629348
Dy       0.00000000       0.00000000       4.47151515       0.00000000       0.00000000      -0.62629348
2
Properties=species:S:1:pos:R:3:forces:R:3 energy=-1.0556969961944473 pbc="F F F"
Dy       0.00000000       0.00000000       0.00000000       0.00000000       0.00000000       0.59334958
Dy       0.00000000       0.00000000       4.53030303       0.00000000       0.00000000      -0.59334958
2
Properties=species:S:1:pos:R:3:forces:R:3 energy=-1.0218277549597976 pbc="F F F"
Dy       0.00000000       0.00000000       0.00000000       0.00000000       0.00000000       0.55876720
Dy       0.00000000       0.00000000       4.58909091       0.00000000       0.00000000      -0.55876720
2
Properties=species:S:1:pos:R:3:forces:R:3 energy=-0.9900073980199104 pbc="F F F"
Dy       0.00000000       0.00000000       0.00000000       0.00000000       0.00000000       0.52382618
Dy       0.00000000       0.00000000       4.64787879       0.00000000       0.00000000      -0.52382618
2
Properties=species:S:1:pos:R:3:forces:R:3 energy=-0.9602245549030586 pbc="F F F"
Dy       0.00000000       0.00000000       0.00000000       0.00000000       0.00000000       0.48955590
Dy       0.00000000       0.00000000       4.70666667       0.00000000       0.00000000      -0.48955590
2
Properties=species:S:1:pos:R:3:forces:R:3 energy=-0.9324193427964279 pbc="F F F"
Dy       0.00000000       0.00000000       0.00000000       0.00000000       0.00000000       0.45668998
Dy       0.00000000       0.00000000       4.76545455       0.00000000       0.00000000      -0.45668998
2
Properties=species:S:1:pos:R:3:forces:R:3 energy=-0.9064916046583852 pbc="F F F"
Dy       0.00000000       0.00000000       0.00000000       0.00000000       0.00000000       0.42570573
Dy       0.00000000       0.00000000       4.82424242       0.00000000       0.00000000      -0.42570573
2
Properties=species:S:1:pos:R:3:forces:R:3 energy=-0.8823242463128067 pbc="F F F"
Dy       0.00000000       0.00000000       0.00000000       0.00000000       0.00000000       0.39694172
Dy       0.00000000       0.00000000       4.88303030       0.00000000       0.00000000      -0.39694172
2
Properties=species:S:1:pos:R:3:forces:R:3 energy=-0.8597730682294464 pbc="F F F"
Dy       0.00000000       0.00000000       0.00000000       0.00000000       0.00000000       0.37063870
Dy       0.00000000       0.00000000       4.94181818       0.00000000       0.00000000      -0.37063870
2
Properties=species:S:1:pos:R:3:forces:R:3 energy=-0.838692891365281 pbc="F F F"
Dy       0.00000000       0.00000000       0.00000000       0.00000000       0.00000000       0.34694052
Dy       0.00000000       0.00000000       5.00060606       0.00000000       0.00000000      -0.34694052
2
Properties=species:S:1:pos:R:3:forces:R:3 energy=-0.8189308192558038 pbc="F F F"
Dy       0.00000000       0.00000000       0.00000000       0.00000000       0.00000000       0.32577720
Dy       0.00000000       0.00000000       5.05939394       0.00000000       0.00000000      -0.32577720
2
Properties=species:S:1:pos:R:3:forces:R:3 energy=-0.8003464517411422 pbc="F F F"
Dy       0.00000000       0.00000000       0.00000000       0.00000000       0.00000000       0.30678406
Dy       0.00000000       0.00000000       5.11818182       0.00000000       0.00000000      -0.30678406
2
Properties=species:S:1:pos:R:3:forces:R:3 energy=-0.7828321061957708 pbc="F F F"
Dy       0.00000000       0.00000000       0.00000000       0.00000000       0.00000000       0.28927708
Dy       0.00000000       0.00000000       5.17696970       0.00000000       0.00000000      -0.28927708
2
Properties=species:S:1:pos:R:3:forces:R:3 energy=-0.7663249768760462 pbc="F F F"
Dy       0.00000000       0.00000000       0.00000000       0.00000000       0.00000000       0.27233979
Dy       0.00000000       0.00000000       5.23575758       0.00000000       0.00000000      -0.27233979
2
Properties=species:S:1:pos:R:3:forces:R:3 energy=-0.7508205790593964 pbc="F F F"
Dy       0.00000000       0.00000000       0.00000000       0.00000000       0.00000000       0.25499710
Dy       0.00000000       0.00000000       5.29454545       0.00000000       0.00000000      -0.25499710
2
Properties=species:S:1:pos:R:3:forces:R:3 energy=-0.7363672933434252 pbc="F F F"
Dy       0.00000000       0.00000000       0.00000000       0.00000000       0.00000000       0.23641087
Dy       0.00000000       0.00000000       5.35333333       0.00000000       0.00000000      -0.23641087
2
Properties=species:S:1:pos:R:3:forces:R:3 energy=-0.7230569875417973 pbc="F F F"
Dy       0.00000000       0.00000000       0.00000000       0.00000000       0.00000000       0.21608205
Dy       0.00000000       0.00000000       5.41212121       0.00000000       0.00000000      -0.21608205
2
Properties=species:S:1:pos:R:3:forces:R:3 energy=-0.7109977862810661 pbc="F F F"
Dy       0.00000000       0.00000000       0.00000000       0.00000000       0.00000000       0.19390224
Dy       0.00000000       0.00000000       5.47090909       0.00000000       0.00000000      -0.19390224
2
Properties=species:S:1:pos:R:3:forces:R:3 energy=-0.7002883675595356 pbc="F F F"
Dy       0.00000000       0.00000000       0.00000000       0.00000000       0.00000000       0.17021376
Dy       0.00000000       0.00000000       5.52969697       0.00000000       0.00000000      -0.17021376
2
Properties=species:S:1:pos:R:3:forces:R:3 energy=-0.691000726917477 pbc="F F F"
Dy       0.00000000       0.00000000       0.00000000       0.00000000       0.00000000       0.14570270
Dy       0.00000000       0.00000000       5.58848485       0.00000000       0.00000000      -0.14570270
2
Properties=species:S:1:pos:R:3:forces:R:3 energy=-0.6831546539778768 pbc="F F F"
Dy       0.00000000       0.00000000       0.00000000       0.00000000       0.00000000       0.12132546
Dy       0.00000000       0.00000000       5.64727273       0.00000000       0.00000000      -0.12132546
2
Properties=species:S:1:pos:R:3:forces:R:3 energy=-0.6767131379690383 pbc="F F F"
Dy       0.00000000       0.00000000       0.00000000       0.00000000       0.00000000       0.09816162
Dy       0.00000000       0.00000000       5.70606061       0.00000000       0.00000000      -0.09816162
2
Properties=species:S:1:pos:R:3:forces:R:3 energy=-0.6715653170443784 pbc="F F F"
Dy       0.00000000       0.00000000       0.00000000       0.00000000       0.00000000       0.07724410
Dy       0.00000000       0.00000000       5.76484848       0.00000000       0.00000000      -0.07724410
2
Properties=species:S:1:pos:R:3:forces:R:3 energy=-0.6675645668183906 pbc="F F F"
Dy       0.00000000       0.00000000       0.00000000       0.00000000       0.00000000       0.05957612
Dy       0.00000000       0.00000000       5.82363636       0.00000000       0.00000000      -0.05957612
2
Properties=species:S:1:pos:R:3:forces:R:3 energy=-0.6644858680384378 pbc="F F F"
Dy       0.00000000       0.00000000       0.00000000       0.00000000       0.00000000       0.04597842
Dy       0.00000000       0.00000000       5.88242424       0.00000000       0.00000000      -0.04597842
2
Properties=species:S:1:pos:R:3:forces:R:3 energy=-0.6620660904051305 pbc="F F F"
Dy       0.00000000       0.00000000       0.00000000       0.00000000       0.00000000       0.03711193
Dy       0.00000000       0.00000000       5.94121212       0.00000000       0.00000000      -0.03711193
2
Properties=species:S:1:pos:R:3:forces:R:3 energy=-0.6600183388687604 pbc="F F F"
Dy       0.00000000       0.00000000       0.00000000       0.00000000       0.00000000       0.03349671
Dy       0.00000000       0.00000000       6.00000000       0.00000000       0.00000000      -0.03349671
