2
Properties=species:S:1:pos:R:3:forces:R:3 energy=13874.222249725146 pbc="F F F"
Er       0.00000000       0.00000000       0.00000000       0.00000000       0.00000000 -240994.20312500
Er       0.00000000       0.00000000       0.18000000       0.00000000       0.00000000  240994.20312500
2
Properties=species:S:1:pos:R:3:forces:R:3 energy=5425.057210662646 pbc="F F F"
Er       0.00000000       0.00000000       0.00000000       0.00000000       0.00000000  -80325.06250000
Er       0.00000000       0.00000000       0.23878788       0.00000000       0.00000000   80325.06250000
2
Properties=species:S:1:pos:R:3:forces:R:3 energy=2389.525960662646 pbc="F F F"
Er       0.00000000       0.00000000       0.00000000       0.00000000       0.00000000  -31511.49023438
Er       0.00000000       0.00000000       0.29757576       0.00000000       0.00000000   31511.49023438
2
Properties=species:S:1:pos:R:3:forces:R:3 energy=1141.8786217954585 pbc="F F F"
Er       0.00000000       0.00000000       0.00000000       0.00000000       0.00000000  -13677.69921875
Er       0.00000000       0.00000000       0.35636364       0.00000000       0.00000000   13677.69921875
2
Properties=species:S:1:pos:R:3:forces:R:3 energy=582.2245690737548 pbc="F F F"
Er       0.00000000       0.00000000       0.00000000       0.00000000       0.00000000   -6380.64941406
Er       0.00000000       0.00000000       0.41515152       0.00000000       0.00000000    6380.64941406
2
Properties=species:S:1:pos:R:3:forces:R:3 energy=314.1753747378173 pbc="F F F"
Er       0.00000000       0.00000000       0.00000000       0.00000000       0.00000000   -3154.69311523
Er       0.00000000       0.00000000       0.47393939       0.00000000       0.00000000    3154.69311523
2
Properties=species:S:1:pos:R:3:forces:R:3 energy=178.58540894284738 pbc="F F F"
Er       0.00000000       0.00000000       0.00000000       0.00000000       0.00000000   -1640.17749023
Er       0.00000000       0.00000000       0.53272727       0.00000000       0.00000000    1640.17749023
2
Properties=species:S:1:pos:R:3:forces:R:3 energy=106.63981418059231 pbc="F F F"
Er       0.00000000       0.00000000       0.00000000       0.00000000       0.00000000    -891.54132080
Er       0.00000000       0.00000000       0.59151515       0.00000000       0.00000000     891.54132080
2
Properties=species:S:1:pos:R:3:forces:R:3 energy=66.81952460678977 pbc="F F F"
Er       0.00000000       0.00000000       0.00000000       0.00000000       0.00000000    -503.93420410
Er       0.00000000       0.00000000       0.65030303       0.00000000       0.00000000     503.93420410
2
Properties=species:S:1:pos:R:3:forces:R:3 energy=43.951356805620236 pbc="F F F"
Er       0.00000000       0.00000000       0.00000000       0.00000000       0.00000000    -294.73327637
Er       0.00000000       0.00000000       0.70909091       0.00000000       0.00000000     294.73327637
2
Properties=species:S:1:pos:R:3:forces:R:3 energy=30.38537981043293 pbc="F F F"
Er       0.00000000       0.00000000       0.00000000       0.00000000       0.00000000    -177.75523376
Er       0.00000000       0.00000000       0.76787879       0.00000000       0.00000000     177.75523376
2
Properties=species:S:1:pos:R:3:forces:R:3 energy=22.088127320130386 pbc="F F F"
Er       0.00000000       0.00000000       0.00000000       0.00000000       0.00000000    -110.59306335
Er       0.00000000       0.00000000       0.82666667       0.00000000       0.00000000     110.59306335
2
Properties=species:S:1:pos:R:3:forces:R:3 energy=16.838467056270222 pbc="F F F"
Er       0.00000000       0.00000000       0.00000000       0.00000000       0.00000000     -71.49990845
Er       0.00000000       0.00000000       0.88545455       0.00000000       0.00000000      71.49990845
2
Properties=species:S:1:pos:R:3:forces:R:3 energy=13.362715496221382 pbc="F F F"
Er       0.00000000       0.00000000       0.00000000       0.00000000       0.00000000     -48.83448792
Er       0.00000000       0.00000000       0.94424242       0.00000000       0.00000000      48.83448792
2
Properties=species:S:1:pos:R:3:forces:R:3 energy=10.90345595283904 pbc="F F F"
Er       0.00000000       0.00000000       0.00000000       0.00000000       0.00000000     -36.12118149
Er       0.00000000       0.00000000       1.00303030       0.00000000       0.00000000      36.12118149
2
Properties=species:S:1:pos:R:3:forces:R:3 energy=8.99423870124566 pbc="F F F"
Er       0.00000000       0.00000000       0.00000000       0.00000000       0.00000000     -29.65210915
Er       0.00000000       0.00000000       1.06181818       0.00000000       0.00000000      29.65210915
2
Properties=species:S:1:pos:R:3:forces:R:3 energy=7.341419866052954 pbc="F F F"
Er       0.00000000       0.00000000       0.00000000       0.00000000       0.00000000     -27.05195618
Er       0.00000000       0.00000000       1.12060606       0.00000000       0.00000000      27.05195618
2
Properties=species:S:1:pos:R:3:forces:R:3 energy=5.7776553666094586 pbc="F F F"
Er       0.00000000       0.00000000       0.00000000       0.00000000       0.00000000     -26.28582382
Er       0.00000000       0.00000000       1.17939394       0.00000000       0.00000000      26.28582382
2
Properties=species:S:1:pos:R:3:forces:R:3 energy=4.252688562488218 pbc="F F F"
Er       0.00000000       0.00000000       0.00000000       0.00000000       0.00000000     -25.45125771
Er       0.00000000       0.00000000       1.23818182       0.00000000       0.00000000      25.45125771
2
Properties=species:S:1:pos:R:3:forces:R:3 energy=2.8104426312752393 pbc="F F F"
Er       0.00000000       0.00000000       0.00000000       0.00000000       0.00000000     -23.37303352
Er       0.00000000       0.00000000       1.29696970       0.00000000       0.00000000      23.37303352
2
Properties=species:S:1:pos:R:3:forces:R:3 energy=1.529553605355848 pbc="F F F"
Er       0.00000000       0.00000000       0.00000000       0.00000000       0.00000000     -20.04127693
Er       0.00000000       0.00000000       1.35575758       0.00000000       0.00000000      20.04127693
2
Properties=species:S:1:pos:R:3:forces:R:3 energy=0.4677977391879677 pbc="F F F"
Er       0.00000000       0.00000000       0.00000000       0.00000000       0.00000000     -15.98767853
Er       0.00000000       0.00000000       1.41454545       0.00000000       0.00000000      15.98767853
2
Properties=species:S:1:pos:R:3:forces:R:3 energy=-0.33799044262469624 pbc="F F F"
Er       0.00000000       0.00000000       0.00000000       0.00000000       0.00000000     -11.30106163
Er       0.00000000       0.00000000       1.47333333       0.00000000       0.00000000      11.30106163
2
Properties=species:S:1:pos:R:3:forces:R:3 energy=-0.8479826834955746 pbc="F F F"
Er       0.00000000       0.00000000       0.00000000       0.00000000       0.00000000      -6.00588560
Er       0.00000000       0.00000000       1.53212121       0.00000000       0.00000000       6.00588560
2
Properties=species:S:1:pos:R:3:forces:R:3 energy=-1.0561845919409096 pbc="F F F"
Er       0.00000000       0.00000000       0.00000000       0.00000000       0.00000000      -1.34847844
Er       0.00000000       0.00000000       1.59090909       0.00000000       0.00000000       1.34847844
2
Properties=species:S:1:pos:R:3:forces:R:3 energy=-1.053220029427161 pbc="F F F"
Er       0.00000000       0.00000000       0.00000000       0.00000000       0.00000000       0.99495423
Er       0.00000000       0.00000000       1.64969697       0.00000000       0.00000000      -0.99495423
2
Properties=species:S:1:pos:R:3:forces:R:3 energy=-0.9865516887474981 pbc="F F F"
Er       0.00000000       0.00000000       0.00000000       0.00000000       0.00000000       0.97506601
Er       0.00000000       0.00000000       1.70848485       0.00000000       0.00000000      -0.97506601
2
Properties=species:S:1:pos:R:3:forces:R:3 energy=-0.9573566639328993 pbc="F F F"
Er       0.00000000       0.00000000       0.00000000       0.00000000       0.00000000      -0.00670830
Er       0.00000000       0.00000000       1.76727273       0.00000000       0.00000000       0.00670830
2
Properties=species:S:1:pos:R:3:forces:R:3 energy=-0.9778333069619004 pbc="F F F"
Er       0.00000000       0.00000000       0.00000000       0.00000000       0.00000000      -0.53388548
Er       0.00000000       0.00000000       1.82606061       0.00000000       0.00000000       0.53388548
2
Properties=species:S:1:pos:R:3:forces:R:3 energy=-0.999826759223403 pbc="F F F"
Er       0.00000000       0.00000000       0.00000000       0.00000000       0.00000000      -0.06823786
Er       0.00000000       0.00000000       1.88484848       0.00000000       0.00000000       0.06823786
2
Properties=species:S:1:pos:R:3:forces:R:3 energy=-0.9776168546222278 pbc="F F F"
Er       0.00000000       0.00000000       0.00000000       0.00000000       0.00000000       0.80860966
Er       0.00000000       0.00000000       1.94363636       0.00000000       0.00000000      -0.80860966
2
Properties=species:S:1:pos:R:3:forces:R:3 energy=-0.9135186530645277 pbc="F F F"
Er       0.00000000       0.00000000       0.00000000       0.00000000       0.00000000       1.27001190
Er       0.00000000       0.00000000       2.00242424       0.00000000       0.00000000      -1.27001190
2
Properties=species:S:1:pos:R:3:forces:R:3 energy=-0.8389523159716361 pbc="F F F"
Er       0.00000000       0.00000000       0.00000000       0.00000000       0.00000000       1.19994390
Er       0.00000000       0.00000000       2.06121212       0.00000000       0.00000000      -1.19994390
2
Properties=species:S:1:pos:R:3:forces:R:3 energy=-0.7773126185645273 pbc="F F F"
Er       0.00000000       0.00000000       0.00000000       0.00000000       0.00000000       0.87586629
Er       0.00000000       0.00000000       2.12000000       0.00000000       0.00000000      -0.87586629
2
Properties=species:S:1:pos:R:3:forces:R:3 energy=-0.7370996680248105 pbc="F F F"
Er       0.00000000       0.00000000       0.00000000       0.00000000       0.00000000       0.48967764
Er       0.00000000       0.00000000       2.17878788       0.00000000       0.00000000      -0.48967764
2
Properties=species:S:1:pos:R:3:forces:R:3 energy=-0.7197123210889113 pbc="F F F"
Er       0.00000000       0.00000000       0.00000000       0.00000000       0.00000000       0.10317365
Er       0.00000000       0.00000000       2.23757576       0.00000000       0.00000000      -0.10317365
2
Properties=species:S:1:pos:R:3:forces:R:3 energy=-0.7248275337493193 pbc="F F F"
Er       0.00000000       0.00000000       0.00000000       0.00000000       0.00000000      -0.27632779
Er       0.00000000       0.00000000       2.29636364       0.00000000       0.00000000       0.27632779
2
Properties=species:S:1:pos:R:3:forces:R:3 energy=-0.7521153821217983 pbc="F F F"
Er       0.00000000       0.00000000       0.00000000       0.00000000       0.00000000      -0.65115732
Er       0.00000000       0.00000000       2.35515152       0.00000000       0.00000000       0.65115732
2
Properties=species:S:1:pos:R:3:forces:R:3 energy=-0.8012161831812822 pbc="F F F"
Er       0.00000000       0.00000000       0.00000000       0.00000000       0.00000000      -1.01682830
Er       0.00000000       0.00000000       2.41393939       0.00000000       0.00000000       1.01682830
2
Properties=species:S:1:pos:R:3:forces:R:3 energy=-0.8712141045530845 pbc="F F F"
Er       0.00000000       0.00000000       0.00000000       0.00000000       0.00000000      -1.35908580
Er       0.00000000       0.00000000       2.47272727       0.00000000       0.00000000       1.35908580
2
Properties=species:S:1:pos:R:3:forces:R:3 energy=-0.9601657171153026 pbc="F F F"
Er       0.00000000       0.00000000       0.00000000       0.00000000       0.00000000      -1.65824449
Er       0.00000000       0.00000000       2.53151515       0.00000000       0.00000000       1.65824449
2
Properties=species:S:1:pos:R:3:forces:R:3 energy=-1.0649819806339504 pbc="F F F"
Er       0.00000000       0.00000000       0.00000000       0.00000000       0.00000000      -1.89633262
Er       0.00000000       0.00000000       2.59030303       0.00000000       0.00000000       1.89633262
2
Properties=species:S:1:pos:R:3:forces:R:3 energy=-1.1817071535748633 pbc="F F F"
Er       0.00000000       0.00000000       0.00000000       0.00000000       0.00000000      -2.06217027
Er       0.00000000       0.00000000       2.64909091       0.00000000       0.00000000       2.06217027
2
Properties=species:S:1:pos:R:3:forces:R:3 energy=-1.305941437464396 pbc="F F F"
Er       0.00000000       0.00000000       0.00000000       0.00000000       0.00000000      -2.15148520
Er       0.00000000       0.00000000       2.70787879       0.00000000       0.00000000       2.15148520
2
Properties=species:S:1:pos:R:3:forces:R:3 energy=-1.4331583857100338 pbc="F F F"
Er       0.00000000       0.00000000       0.00000000       0.00000000       0.00000000      -2.16364598
Er       0.00000000       0.00000000       2.76666667       0.00000000       0.00000000       2.16364598
2
Properties=species:S:1:pos:R:3:forces:R:3 energy=-1.5588222684018698 pbc="F F F"
Er       0.00000000       0.00000000       0.00000000       0.00000000       0.00000000      -2.09871101
Er       0.00000000       0.00000000       2.82545455       0.00000000       0.00000000       2.09871101
2
Properties=species:S:1:pos:R:3:forces:R:3 energy=-1.678419064391984 pbc="F F F"
Er       0.00000000       0.00000000       0.00000000       0.00000000       0.00000000      -1.95746315
Er       0.00000000       0.00000000       2.88424242       0.00000000       0.00000000       1.95746315
2
Properties=species:S:1:pos:R:3:forces:R:3 energy=-1.7875535309981954 pbc="F F F"
Er       0.00000000       0.00000000       0.00000000       0.00000000       0.00000000      -1.74398875
Er       0.00000000       0.00000000       2.94303030       0.00000000       0.00000000       1.74398875
2
Properties=species:S:1:pos:R:3:forces:R:3 energy=-1.8822503946977174 pbc="F F F"
Er       0.00000000       0.00000000       0.00000000       0.00000000       0.00000000      -1.46853650
Er       0.00000000       0.00000000       3.00181818       0.00000000       0.00000000       1.46853650
2
Properties=species:S:1:pos:R:3:forces:R:3 energy=-1.9593373935811587 pbc="F F F"
Er       0.00000000       0.00000000       0.00000000       0.00000000       0.00000000      -1.14829874
Er       0.00000000       0.00000000       3.06060606       0.00000000       0.00000000       1.14829874
2
Properties=species:S:1:pos:R:3:forces:R:3 energy=-2.0168092843340606 pbc="F F F"
Er       0.00000000       0.00000000       0.00000000       0.00000000       0.00000000      -0.80496401
Er       0.00000000       0.00000000       3.11939394       0.00000000       0.00000000       0.80496401
2
Properties=species:S:1:pos:R:3:forces:R:3 energy=-2.053955598917333 pbc="F F F"
Er       0.00000000       0.00000000       0.00000000       0.00000000       0.00000000      -0.46015292
Er       0.00000000       0.00000000       3.17818182       0.00000000       0.00000000       0.46015292
2
Properties=species:S:1:pos:R:3:forces:R:3 energy=-2.071225577610405 pbc="F F F"
Er       0.00000000       0.00000000       0.00000000       0.00000000       0.00000000      -0.13108625
Er       0.00000000       0.00000000       3.23696970       0.00000000       0.00000000       0.13108625
2
Properties=species:S:1:pos:R:3:forces:R:3 energy=-2.069893092864953 pbc="F F F"
Er       0.00000000       0.00000000       0.00000000       0.00000000       0.00000000       0.17137896
Er       0.00000000       0.00000000       3.29575758       0.00000000       0.00000000      -0.17137896
2
Properties=species:S:1:pos:R:3:forces:R:3 energy=-2.0517050569366866 pbc="F F F"
Er       0.00000000       0.00000000       0.00000000       0.00000000       0.00000000       0.44181073
Er       0.00000000       0.00000000       3.35454545       0.00000000       0.00000000      -0.44181073
2
Properties=species:S:1:pos:R:3:forces:R:3 energy=-2.018624486012482 pbc="F F F"
Er       0.00000000       0.00000000       0.00000000       0.00000000       0.00000000       0.67767352
Er       0.00000000       0.00000000       3.41333333       0.00000000       0.00000000      -0.67767352
2
Properties=species:S:1:pos:R:3:forces:R:3 energy=-1.9727433277094506 pbc="F F F"
Er       0.00000000       0.00000000       0.00000000       0.00000000       0.00000000       0.87694949
Er       0.00000000       0.00000000       3.47212121       0.00000000       0.00000000      -0.87694949
2
Properties=species:S:1:pos:R:3:forces:R:3 energy=-1.916285793271471 pbc="F F F"
Er       0.00000000       0.00000000       0.00000000       0.00000000       0.00000000       1.03700709
Er       0.00000000       0.00000000       3.53090909       0.00000000       0.00000000      -1.03700709
2
Properties=species:S:1:pos:R:3:forces:R:3 energy=-1.8516441236837253 pbc="F F F"
Er       0.00000000       0.00000000       0.00000000       0.00000000       0.00000000       1.15486979
Er       0.00000000       0.00000000       3.58969697       0.00000000       0.00000000      -1.15486979
2
Properties=species:S:1:pos:R:3:forces:R:3 energy=-1.781368595771379 pbc="F F F"
Er       0.00000000       0.00000000       0.00000000       0.00000000       0.00000000       1.22850549
Er       0.00000000       0.00000000       3.64848485       0.00000000       0.00000000      -1.22850549
2
Properties=species:S:1:pos:R:3:forces:R:3 energy=-1.7080620501526922 pbc="F F F"
Er       0.00000000       0.00000000       0.00000000       0.00000000       0.00000000       1.25837040
Er       0.00000000       0.00000000       3.70727273       0.00000000       0.00000000      -1.25837040
2
Properties=species:S:1:pos:R:3:forces:R:3 energy=-1.6341958269282626 pbc="F F F"
Er       0.00000000       0.00000000       0.00000000       0.00000000       0.00000000       1.24846613
Er       0.00000000       0.00000000       3.76606061       0.00000000       0.00000000      -1.24846613
2
Properties=species:S:1:pos:R:3:forces:R:3 energy=-1.5619058607750937 pbc="F F F"
Er       0.00000000       0.00000000       0.00000000       0.00000000       0.00000000       1.20630372
Er       0.00000000       0.00000000       3.82484848       0.00000000       0.00000000      -1.20630372
2
Properties=species:S:1:pos:R:3:forces:R:3 energy=-1.49280454451306 pbc="F F F"
Er       0.00000000       0.00000000       0.00000000       0.00000000       0.00000000       1.14166641
Er       0.00000000       0.00000000       3.88363636       0.00000000       0.00000000      -1.14166641
2
Properties=species:S:1:pos:R:3:forces:R:3 energy=-1.4279141849787589 pbc="F F F"
Er       0.00000000       0.00000000       0.00000000       0.00000000       0.00000000       1.06470633
Er       0.00000000       0.00000000       3.94242424       0.00000000       0.00000000      -1.06470633
2
Properties=species:S:1:pos:R:3:forces:R:3 energy=-1.3676913165528877 pbc="F F F"
Er       0.00000000       0.00000000       0.00000000       0.00000000       0.00000000       0.98412251
Er       0.00000000       0.00000000       4.00121212       0.00000000       0.00000000      -0.98412251
2
Properties=species:S:1:pos:R:3:forces:R:3 energy=-1.3121541600653985 pbc="F F F"
Er       0.00000000       0.00000000       0.00000000       0.00000000       0.00000000       0.90604293
Er       0.00000000       0.00000000       4.06000000       0.00000000       0.00000000      -0.90604293
2
Properties=species:S:1:pos:R:3:forces:R:3 energy=-1.261045985039645 pbc="F F F"
Er       0.00000000       0.00000000       0.00000000       0.00000000       0.00000000       0.83381975
Er       0.00000000       0.00000000       4.11878788       0.00000000       0.00000000      -0.83381975
2
Properties=species:S:1:pos:R:3:forces:R:3 energy=-1.2139817866357314 pbc="F F F"
Er       0.00000000       0.00000000       0.00000000       0.00000000       0.00000000       0.76845157
Er       0.00000000       0.00000000       4.17757576       0.00000000       0.00000000      -0.76845157
2
Properties=species:S:1:pos:R:3:forces:R:3 energy=-1.170570125048031 pbc="F F F"
Er       0.00000000       0.00000000       0.00000000       0.00000000       0.00000000       0.70937574
Er       0.00000000       0.00000000       4.23636364       0.00000000       0.00000000      -0.70937574
2
Properties=species:S:1:pos:R:3:forces:R:3 energy=-1.1304782949727035 pbc="F F F"
Er       0.00000000       0.00000000       0.00000000       0.00000000       0.00000000       0.65526539
Er       0.00000000       0.00000000       4.29515152       0.00000000       0.00000000      -0.65526539
2
Properties=species:S:1:pos:R:3:forces:R:3 energy=-1.093458211614567 pbc="F F F"
Er       0.00000000       0.00000000       0.00000000       0.00000000       0.00000000       0.60470462
Er       0.00000000       0.00000000       4.35393939       0.00000000       0.00000000      -0.60470462
2
Properties=species:S:1:pos:R:3:forces:R:3 energy=-1.0593320537192454 pbc="F F F"
Er       0.00000000       0.00000000       0.00000000       0.00000000       0.00000000       0.55664682
Er       0.00000000       0.00000000       4.41272727       0.00000000       0.00000000      -0.55664682
2
Properties=species:S:1:pos:R:3:forces:R:3 energy=-1.0279688971365226 pbc="F F F"
Er       0.00000000       0.00000000       0.00000000       0.00000000       0.00000000       0.51068360
Er       0.00000000       0.00000000       4.47151515       0.00000000       0.00000000      -0.51068360
2
Properties=species:S:1:pos:R:3:forces:R:3 energy=-0.9992418222348346 pbc="F F F"
Er       0.00000000       0.00000000       0.00000000       0.00000000       0.00000000       0.46705759
Er       0.00000000       0.00000000       4.53030303       0.00000000       0.00000000      -0.46705759
2
Properties=species:S:1:pos:R:3:forces:R:3 energy=-0.9729946786841104 pbc="F F F"
Er       0.00000000       0.00000000       0.00000000       0.00000000       0.00000000       0.42649251
Er       0.00000000       0.00000000       4.58909091       0.00000000       0.00000000      -0.42649251
2
Properties=species:S:1:pos:R:3:forces:R:3 energy=-0.9490193619989302 pbc="F F F"
Er       0.00000000       0.00000000       0.00000000       0.00000000       0.00000000       0.38990167
Er       0.00000000       0.00000000       4.64787879       0.00000000       0.00000000      -0.38990167
2
Properties=species:S:1:pos:R:3:forces:R:3 energy=-0.9270576232686472 pbc="F F F"
Er       0.00000000       0.00000000       0.00000000       0.00000000       0.00000000       0.35808587
Er       0.00000000       0.00000000       4.70666667       0.00000000       0.00000000      -0.35808587
2
Properties=species:S:1:pos:R:3:forces:R:3 energy=-0.9068136051397235 pbc="F F F"
Er       0.00000000       0.00000000       0.00000000       0.00000000       0.00000000       0.33152846
Er       0.00000000       0.00000000       4.76545455       0.00000000       0.00000000      -0.33152846
2
Properties=species:S:1:pos:R:3:forces:R:3 energy=-0.8879732956886581 pbc="F F F"
Er       0.00000000       0.00000000       0.00000000       0.00000000       0.00000000       0.31027967
Er       0.00000000       0.00000000       4.82424242       0.00000000       0.00000000      -0.31027967
2
Properties=species:S:1:pos:R:3:forces:R:3 energy=-0.8702360681985633 pbc="F F F"
Er       0.00000000       0.00000000       0.00000000       0.00000000       0.00000000       0.29396579
Er       0.00000000       0.00000000       4.88303030       0.00000000       0.00000000      -0.29396579
2
Properties=species:S:1:pos:R:3:forces:R:3 energy=-0.8533276496291483 pbc="F F F"
Er       0.00000000       0.00000000       0.00000000       0.00000000       0.00000000       0.28185150
Er       0.00000000       0.00000000       4.94181818       0.00000000       0.00000000      -0.28185150
2
Properties=species:S:1:pos:R:3:forces:R:3 energy=-0.8370334865465056 pbc="F F F"
Er       0.00000000       0.00000000       0.00000000       0.00000000       0.00000000       0.27290323
Er       0.00000000       0.00000000       5.00060606       0.00000000       0.00000000      -0.27290323
2
Properties=species:S:1:pos:R:3:forces:R:3 energy=-0.8212021780178818 pbc="F F F"
Er       0.00000000       0.00000000       0.00000000       0.00000000       0.00000000       0.26589787
Er       0.00000000       0.00000000       5.05939394       0.00000000       0.00000000      -0.26589787
2
Properties=species:S:1:pos:R:3:forces:R:3 energy=-0.8057576516302417 pbc="F F F"
Er       0.00000000       0.00000000       0.00000000       0.00000000       0.00000000       0.25953197
Er       0.00000000       0.00000000       5.11818182       0.00000000       0.00000000      -0.25953197
2
Properties=species:S:1:pos:R:3:forces:R:3 energy=-0.7907011025171217 pbc="F F F"
Er       0.00000000       0.00000000       0.00000000       0.00000000       0.00000000       0.25253031
Er       0.00000000       0.00000000       5.17696970       0.00000000       0.00000000      -0.25253031
2
Properties=species:S:1:pos:R:3:forces:R:3 energy=-0.7761018891031141 pbc="F F F"
Er       0.00000000       0.00000000       0.00000000       0.00000000       0.00000000       0.24379613
Er       0.00000000       0.00000000       5.23575758       0.00000000       0.00000000      -0.24379613
2
Properties=species:S:1:pos:R:3:forces:R:3 energy=-0.7620873648842357 pbc="F F F"
Er       0.00000000       0.00000000       0.00000000       0.00000000       0.00000000       0.23252390
Er       0.00000000       0.00000000       5.29454545       0.00000000       0.00000000      -0.23252390
2
Properties=species:S:1:pos:R:3:forces:R:3 energy=-0.748820391053761 pbc="F F F"
Er       0.00000000       0.00000000       0.00000000       0.00000000       0.00000000       0.21828237
Er       0.00000000       0.00000000       5.35333333       0.00000000       0.00000000      -0.21828237
2
Properties=species:S:1:pos:R:3:forces:R:3 energy=-0.7364801743168732 pbc="F F F"
Er       0.00000000       0.00000000       0.00000000       0.00000000       0.00000000       0.20103751
Er       0.00000000       0.00000000       5.41212121       0.00000000       0.00000000      -0.20103751
2
Properties=species:S:1:pos:R:3:forces:R:3 energy=-0.7252342895535342 pbc="F F F"
Er       0.00000000       0.00000000       0.00000000       0.00000000       0.00000000       0.18117633
Er       0.00000000       0.00000000       5.47090909       0.00000000       0.00000000      -0.18117633
2
Properties=species:S:1:pos:R:3:forces:R:3 energy=-0.7152159540257378 pbc="F F F"
Er       0.00000000       0.00000000       0.00000000       0.00000000       0.00000000       0.15938865
Er       0.00000000       0.00000000       5.52969697       0.00000000       0.00000000      -0.15938865
2
Properties=species:S:1:pos:R:3:forces:R:3 energy=-0.7065138338153016 pbc="F F F"
Er       0.00000000       0.00000000       0.00000000       0.00000000       0.00000000       0.13659455
Er       0.00000000       0.00000000       5.58848485       0.00000000       0.00000000      -0.13659455
2
Properties=species:S:1:pos:R:3:forces:R:3 energy=-0.6991547178791699 pbc="F F F"
Er       0.00000000       0.00000000       0.00000000       0.00000000       0.00000000       0.11386420
Er       0.00000000       0.00000000       5.64727273       0.00000000       0.00000000      -0.11386420
2
Properties=species:S:1:pos:R:3:forces:R:3 energy=-0.693105454740364 pbc="F F F"
Er       0.00000000       0.00000000       0.00000000       0.00000000       0.00000000       0.09226121
Er       0.00000000       0.00000000       5.70606061       0.00000000       0.00000000      -0.09226121
2
Properties=species:S:1:pos:R:3:forces:R:3 energy=-0.6882610347268487 pbc="F F F"
Er       0.00000000       0.00000000       0.00000000       0.00000000       0.00000000       0.07280067
Er       0.00000000       0.00000000       5.76484848       0.00000000       0.00000000      -0.07280067
2
Properties=species:S:1:pos:R:3:forces:R:3 energy=-0.6844832644665025 pbc="F F F"
Er       0.00000000       0.00000000       0.00000000       0.00000000       0.00000000       0.05638781
Er       0.00000000       0.00000000       5.82363636       0.00000000       0.00000000      -0.05638781
2
Properties=species:S:1:pos:R:3:forces:R:3 energy=-0.6815621375735752 pbc="F F F"
Er       0.00000000       0.00000000       0.00000000       0.00000000       0.00000000       0.04375309
Er       0.00000000       0.00000000       5.88242424       0.00000000       0.00000000      -0.04375309
2
Properties=species:S:1:pos:R:3:forces:R:3 energy=-0.6792528782274698 pbc="F F F"
Er       0.00000000       0.00000000       0.00000000       0.00000000       0.00000000       0.03551675
Er       0.00000000       0.00000000       5.94121212       0.00000000       0.00000000      -0.03551675
2
Properties=species:S:1:pos:R:3:forces:R:3 energy=-0.6772892298407053 pbc="F F F"
Er       0.00000000       0.00000000       0.00000000       0.00000000       0.00000000       0.03216203
Er       0.00000000       0.00000000       6.00000000       0.00000000       0.00000000      -0.03216203
