2
Properties=species:S:1:pos:R:3:forces:R:3 energy=63778.24868106513 pbc="F F F"
Eu       0.00000000       0.00000000       0.00000000       0.00000000       0.00000000 -1580907.87500000
Eu       0.00000000       0.00000000       0.10000000       0.00000000       0.00000000 1580907.87500000
2
Properties=species:S:1:pos:R:3:forces:R:3 energy=17965.512352940135 pbc="F F F"
Eu       0.00000000       0.00000000       0.00000000       0.00000000       0.00000000 -332935.31250000
Eu       0.00000000       0.00000000       0.15959596       0.00000000       0.00000000  332935.31250000
2
Properties=species:S:1:pos:R:3:forces:R:3 energy=6597.2755365338835 pbc="F F F"
Eu       0.00000000       0.00000000       0.00000000       0.00000000       0.00000000 -101634.33593750
Eu       0.00000000       0.00000000       0.21919192       0.00000000       0.00000000  101634.33593750
2
Properties=species:S:1:pos:R:3:forces:R:3 energy=2791.864647862009 pbc="F F F"
Eu       0.00000000       0.00000000       0.00000000       0.00000000       0.00000000  -37954.78515625
Eu       0.00000000       0.00000000       0.27878788       0.00000000       0.00000000   37954.78515625
2
Properties=species:S:1:pos:R:3:forces:R:3 energy=1289.8995599745517 pbc="F F F"
Eu       0.00000000       0.00000000       0.00000000       0.00000000       0.00000000  -15977.55371094
Eu       0.00000000       0.00000000       0.33838384       0.00000000       0.00000000   15977.55371094
2
Properties=species:S:1:pos:R:3:forces:R:3 energy=633.8170404433017 pbc="F F F"
Eu       0.00000000       0.00000000       0.00000000       0.00000000       0.00000000   -7290.49267578
Eu       0.00000000       0.00000000       0.39797980       0.00000000       0.00000000    7290.49267578
2
Properties=species:S:1:pos:R:3:forces:R:3 energy=325.88356876678205 pbc="F F F"
Eu       0.00000000       0.00000000       0.00000000       0.00000000       0.00000000   -3539.62646484
Eu       0.00000000       0.00000000       0.45757576       0.00000000       0.00000000    3539.62646484
2
Properties=species:S:1:pos:R:3:forces:R:3 energy=172.771294600028 pbc="F F F"
Eu       0.00000000       0.00000000       0.00000000       0.00000000       0.00000000   -1811.25317383
Eu       0.00000000       0.00000000       0.51717172       0.00000000       0.00000000    1811.25317383
2
Properties=species:S:1:pos:R:3:forces:R:3 energy=92.74568272575442 pbc="F F F"
Eu       0.00000000       0.00000000       0.00000000       0.00000000       0.00000000    -970.90057373
Eu       0.00000000       0.00000000       0.57676768       0.00000000       0.00000000     970.90057373
2
Properties=species:S:1:pos:R:3:forces:R:3 energy=49.02459051430462 pbc="F F F"
Eu       0.00000000       0.00000000       0.00000000       0.00000000       0.00000000    -542.44464111
Eu       0.00000000       0.00000000       0.63636364       0.00000000       0.00000000     542.44464111
2
Properties=species:S:1:pos:R:3:forces:R:3 energy=24.176978152330108 pbc="F F F"
Eu       0.00000000       0.00000000       0.00000000       0.00000000       0.00000000    -314.46105957
Eu       0.00000000       0.00000000       0.69595960       0.00000000       0.00000000     314.46105957
2
Properties=species:S:1:pos:R:3:forces:R:3 energy=9.546872211718291 pbc="F F F"
Eu       0.00000000       0.00000000       0.00000000       0.00000000       0.00000000    -188.54400635
Eu       0.00000000       0.00000000       0.75555556       0.00000000       0.00000000     188.54400635
2
Properties=species:S:1:pos:R:3:forces:R:3 energy=0.6404620324470007 pbc="F F F"
Eu       0.00000000       0.00000000       0.00000000       0.00000000       0.00000000    -116.90253448
Eu       0.00000000       0.00000000       0.81515152       0.00000000       0.00000000     116.90253448
2
Properties=species:S:1:pos:R:3:forces:R:3 energy=-4.977360554459105 pbc="F F F"
Eu       0.00000000       0.00000000       0.00000000       0.00000000       0.00000000     -75.33683014
Eu       0.00000000       0.00000000       0.87474747       0.00000000       0.00000000      75.33683014
2
Properties=species:S:1:pos:R:3:forces:R:3 energy=-8.677813270325515 pbc="F F F"
Eu       0.00000000       0.00000000       0.00000000       0.00000000       0.00000000     -50.99662399
Eu       0.00000000       0.00000000       0.93434343       0.00000000       0.00000000      50.99662399
2
Properties=species:S:1:pos:R:3:forces:R:3 energy=-11.251575093118536 pbc="F F F"
Eu       0.00000000       0.00000000       0.00000000       0.00000000       0.00000000     -36.60102844
Eu       0.00000000       0.00000000       0.99393939       0.00000000       0.00000000      36.60102844
2
Properties=species:S:1:pos:R:3:forces:R:3 energy=-13.147586284098669 pbc="F F F"
Eu       0.00000000       0.00000000       0.00000000       0.00000000       0.00000000     -27.64860535
Eu       0.00000000       0.00000000       1.05353535       0.00000000       0.00000000      27.64860535
2
Properties=species:S:1:pos:R:3:forces:R:3 energy=-14.594381529080954 pbc="F F F"
Eu       0.00000000       0.00000000       0.00000000       0.00000000       0.00000000     -21.10495758
Eu       0.00000000       0.00000000       1.11313131       0.00000000       0.00000000      21.10495758
2
Properties=species:S:1:pos:R:3:forces:R:3 energy=-15.668151767048249 pbc="F F F"
Eu       0.00000000       0.00000000       0.00000000       0.00000000       0.00000000     -14.84338188
Eu       0.00000000       0.00000000       1.17272727       0.00000000       0.00000000      14.84338188
2
Properties=species:S:1:pos:R:3:forces:R:3 energy=-16.344546812672824 pbc="F F F"
Eu       0.00000000       0.00000000       0.00000000       0.00000000       0.00000000      -7.67929173
Eu       0.00000000       0.00000000       1.23232323       0.00000000       0.00000000       7.67929173
2
Properties=species:S:1:pos:R:3:forces:R:3 energy=-16.571782134734704 pbc="F F F"
Eu       0.00000000       0.00000000       0.00000000       0.00000000       0.00000000       0.01218481
Eu       0.00000000       0.00000000       1.29191919       0.00000000       0.00000000      -0.01218481
2
Properties=species:S:1:pos:R:3:forces:R:3 energy=-16.371551884905283 pbc="F F F"
Eu       0.00000000       0.00000000       0.00000000       0.00000000       0.00000000       6.26524639
Eu       0.00000000       0.00000000       1.35151515       0.00000000       0.00000000      -6.26524639
2
Properties=species:S:1:pos:R:3:forces:R:3 energy=-15.895599933032608 pbc="F F F"
Eu       0.00000000       0.00000000       0.00000000       0.00000000       0.00000000       9.04263496
Eu       0.00000000       0.00000000       1.41111111       0.00000000       0.00000000      -9.04263496
2
Properties=species:S:1:pos:R:3:forces:R:3 energy=-15.365058519545192 pbc="F F F"
Eu       0.00000000       0.00000000       0.00000000       0.00000000       0.00000000       8.30415535
Eu       0.00000000       0.00000000       1.47070707       0.00000000       0.00000000      -8.30415535
2
Properties=species:S:1:pos:R:3:forces:R:3 energy=-14.93848740879133 pbc="F F F"
Eu       0.00000000       0.00000000       0.00000000       0.00000000       0.00000000       5.90760183
Eu       0.00000000       0.00000000       1.53030303       0.00000000       0.00000000      -5.90760183
2
Properties=species:S:1:pos:R:3:forces:R:3 energy=-14.659387469361352 pbc="F F F"
Eu       0.00000000       0.00000000       0.00000000       0.00000000       0.00000000       3.54582953
Eu       0.00000000       0.00000000       1.58989899       0.00000000       0.00000000      -3.54582953
2
Properties=species:S:1:pos:R:3:forces:R:3 energy=-14.503140492262931 pbc="F F F"
Eu       0.00000000       0.00000000       0.00000000       0.00000000       0.00000000       1.79872191
Eu       0.00000000       0.00000000       1.64949495       0.00000000       0.00000000      -1.79872191
2
Properties=species:S:1:pos:R:3:forces:R:3 energy=-14.43587477611511 pbc="F F F"
Eu       0.00000000       0.00000000       0.00000000       0.00000000       0.00000000       0.50805861
Eu       0.00000000       0.00000000       1.70909091       0.00000000       0.00000000      -0.50805861
2
Properties=species:S:1:pos:R:3:forces:R:3 energy=-14.439241573217254 pbc="F F F"
Eu       0.00000000       0.00000000       0.00000000       0.00000000       0.00000000      -0.60721564
Eu       0.00000000       0.00000000       1.76868687       0.00000000       0.00000000       0.60721564
2
Properties=species:S:1:pos:R:3:forces:R:3 energy=-14.506931288760825 pbc="F F F"
Eu       0.00000000       0.00000000       0.00000000       0.00000000       0.00000000      -1.64876962
Eu       0.00000000       0.00000000       1.82828283       0.00000000       0.00000000       1.64876962
2
Properties=species:S:1:pos:R:3:forces:R:3 energy=-14.632237621596408 pbc="F F F"
Eu       0.00000000       0.00000000       0.00000000       0.00000000       0.00000000      -2.50861526
Eu       0.00000000       0.00000000       1.88787879       0.00000000       0.00000000       2.50861526
2
Properties=species:S:1:pos:R:3:forces:R:3 energy=-14.79797908654061 pbc="F F F"
Eu       0.00000000       0.00000000       0.00000000       0.00000000       0.00000000      -2.97325373
Eu       0.00000000       0.00000000       1.94747475       0.00000000       0.00000000       2.97325373
2
Properties=species:S:1:pos:R:3:forces:R:3 energy=-14.977487077988647 pbc="F F F"
Eu       0.00000000       0.00000000       0.00000000       0.00000000       0.00000000      -2.99118447
Eu       0.00000000       0.00000000       2.00707071       0.00000000       0.00000000       2.99118447
2
Properties=species:S:1:pos:R:3:forces:R:3 energy=-15.15074665566406 pbc="F F F"
Eu       0.00000000       0.00000000       0.00000000       0.00000000       0.00000000      -2.81778455
Eu       0.00000000       0.00000000       2.06666667       0.00000000       0.00000000       2.81778455
2
Properties=species:S:1:pos:R:3:forces:R:3 energy=-15.314273036593903 pbc="F F F"
Eu       0.00000000       0.00000000       0.00000000       0.00000000       0.00000000      -2.68196630
Eu       0.00000000       0.00000000       2.12626263       0.00000000       0.00000000       2.68196630
2
Properties=species:S:1:pos:R:3:forces:R:3 energy=-15.471366811559527 pbc="F F F"
Eu       0.00000000       0.00000000       0.00000000       0.00000000       0.00000000      -2.59281111
Eu       0.00000000       0.00000000       2.18585859       0.00000000       0.00000000       2.59281111
2
Properties=species:S:1:pos:R:3:forces:R:3 energy=-15.623202793277146 pbc="F F F"
Eu       0.00000000       0.00000000       0.00000000       0.00000000       0.00000000      -2.49953556
Eu       0.00000000       0.00000000       2.24545455       0.00000000       0.00000000       2.49953556
2
Properties=species:S:1:pos:R:3:forces:R:3 energy=-15.768857875693636 pbc="F F F"
Eu       0.00000000       0.00000000       0.00000000       0.00000000       0.00000000      -2.38517761
Eu       0.00000000       0.00000000       2.30505051       0.00000000       0.00000000       2.38517761
2
Properties=species:S:1:pos:R:3:forces:R:3 energy=-15.907185894336134 pbc="F F F"
Eu       0.00000000       0.00000000       0.00000000       0.00000000       0.00000000      -2.25527477
Eu       0.00000000       0.00000000       2.36464646       0.00000000       0.00000000       2.25527477
2
Properties=species:S:1:pos:R:3:forces:R:3 energy=-16.037552896538717 pbc="F F F"
Eu       0.00000000       0.00000000       0.00000000       0.00000000       0.00000000      -2.11957741
Eu       0.00000000       0.00000000       2.42424242       0.00000000       0.00000000       2.11957741
2
Properties=species:S:1:pos:R:3:forces:R:3 energy=-16.159882394959073 pbc="F F F"
Eu       0.00000000       0.00000000       0.00000000       0.00000000       0.00000000      -1.98688149
Eu       0.00000000       0.00000000       2.48383838       0.00000000       0.00000000       1.98688149
2
Properties=species:S:1:pos:R:3:forces:R:3 energy=-16.274581814278893 pbc="F F F"
Eu       0.00000000       0.00000000       0.00000000       0.00000000       0.00000000      -1.86455619
Eu       0.00000000       0.00000000       2.54343434       0.00000000       0.00000000       1.86455619
2
Properties=species:S:1:pos:R:3:forces:R:3 energy=-16.38243526770372 pbc="F F F"
Eu       0.00000000       0.00000000       0.00000000       0.00000000       0.00000000      -1.75786591
Eu       0.00000000       0.00000000       2.60303030       0.00000000       0.00000000       1.75786591
2
Properties=species:S:1:pos:R:3:forces:R:3 energy=-16.48445890574558 pbc="F F F"
Eu       0.00000000       0.00000000       0.00000000       0.00000000       0.00000000      -1.66878211
Eu       0.00000000       0.00000000       2.66262626       0.00000000       0.00000000       1.66878211
2
Properties=species:S:1:pos:R:3:forces:R:3 energy=-16.58165552082074 pbc="F F F"
Eu       0.00000000       0.00000000       0.00000000       0.00000000       0.00000000      -1.59538960
Eu       0.00000000       0.00000000       2.72222222       0.00000000       0.00000000       1.59538960
2
Properties=species:S:1:pos:R:3:forces:R:3 energy=-16.674824746893936 pbc="F F F"
Eu       0.00000000       0.00000000       0.00000000       0.00000000       0.00000000      -1.53254580
Eu       0.00000000       0.00000000       2.78181818       0.00000000       0.00000000       1.53254580
2
Properties=species:S:1:pos:R:3:forces:R:3 energy=-16.76439809583655 pbc="F F F"
Eu       0.00000000       0.00000000       0.00000000       0.00000000       0.00000000      -1.47347355
Eu       0.00000000       0.00000000       2.84141414       0.00000000       0.00000000       1.47347355
2
Properties=species:S:1:pos:R:3:forces:R:3 energy=-16.85039115618168 pbc="F F F"
Eu       0.00000000       0.00000000       0.00000000       0.00000000       0.00000000      -1.41145754
Eu       0.00000000       0.00000000       2.90101010       0.00000000       0.00000000       1.41145754
2
Properties=species:S:1:pos:R:3:forces:R:3 energy=-16.93246324647051 pbc="F F F"
Eu       0.00000000       0.00000000       0.00000000       0.00000000       0.00000000      -1.34095967
Eu       0.00000000       0.00000000       2.96060606       0.00000000       0.00000000       1.34095967
2
Properties=species:S:1:pos:R:3:forces:R:3 energy=-17.009977660981463 pbc="F F F"
Eu       0.00000000       0.00000000       0.00000000       0.00000000       0.00000000      -1.25813043
Eu       0.00000000       0.00000000       3.02020202       0.00000000       0.00000000       1.25813043
2
Properties=species:S:1:pos:R:3:forces:R:3 energy=-17.082136675539335 pbc="F F F"
Eu       0.00000000       0.00000000       0.00000000       0.00000000       0.00000000      -1.16099787
Eu       0.00000000       0.00000000       3.07979798       0.00000000       0.00000000       1.16099787
2
Properties=species:S:1:pos:R:3:forces:R:3 energy=-17.148076983360212 pbc="F F F"
Eu       0.00000000       0.00000000       0.00000000       0.00000000       0.00000000      -1.04974174
Eu       0.00000000       0.00000000       3.13939394       0.00000000       0.00000000       1.04974174
2
Properties=species:S:1:pos:R:3:forces:R:3 energy=-17.207028487746584 pbc="F F F"
Eu       0.00000000       0.00000000       0.00000000       0.00000000       0.00000000      -0.92707723
Eu       0.00000000       0.00000000       3.19898990       0.00000000       0.00000000       0.92707723
2
Properties=species:S:1:pos:R:3:forces:R:3 energy=-17.258457182143236 pbc="F F F"
Eu       0.00000000       0.00000000       0.00000000       0.00000000       0.00000000      -0.79839015
Eu       0.00000000       0.00000000       3.25858586       0.00000000       0.00000000       0.79839015
2
Properties=species:S:1:pos:R:3:forces:R:3 energy=-17.302219589895863 pbc="F F F"
Eu       0.00000000       0.00000000       0.00000000       0.00000000       0.00000000      -0.67123759
Eu       0.00000000       0.00000000       3.31818182       0.00000000       0.00000000       0.67123759
2
Properties=species:S:1:pos:R:3:forces:R:3 energy=-17.33866331830831 pbc="F F F"
Eu       0.00000000       0.00000000       0.00000000       0.00000000       0.00000000      -0.55420274
Eu       0.00000000       0.00000000       3.37777778       0.00000000       0.00000000       0.55420274
2
Properties=species:S:1:pos:R:3:forces:R:3 energy=-17.368636190805244 pbc="F F F"
Eu       0.00000000       0.00000000       0.00000000       0.00000000       0.00000000      -0.45520943
Eu       0.00000000       0.00000000       3.43737374       0.00000000       0.00000000       0.45520943
2
Properties=species:S:1:pos:R:3:forces:R:3 energy=-17.393373982366363 pbc="F F F"
Eu       0.00000000       0.00000000       0.00000000       0.00000000       0.00000000      -0.37872279
Eu       0.00000000       0.00000000       3.49696970       0.00000000       0.00000000       0.37872279
2
Properties=species:S:1:pos:R:3:forces:R:3 energy=-17.414148052699822 pbc="F F F"
Eu       0.00000000       0.00000000       0.00000000       0.00000000       0.00000000      -0.32036793
Eu       0.00000000       0.00000000       3.55656566       0.00000000       0.00000000       0.32036793
2
Properties=species:S:1:pos:R:3:forces:R:3 energy=-17.431552493636016 pbc="F F F"
Eu       0.00000000       0.00000000       0.00000000       0.00000000       0.00000000      -0.26131958
Eu       0.00000000       0.00000000       3.61616162       0.00000000       0.00000000       0.26131958
2
Properties=species:S:1:pos:R:3:forces:R:3 energy=-17.444762927070716 pbc="F F F"
Eu       0.00000000       0.00000000       0.00000000       0.00000000       0.00000000      -0.17623080
Eu       0.00000000       0.00000000       3.67575758       0.00000000       0.00000000       0.17623080
2
Properties=species:S:1:pos:R:3:forces:R:3 energy=-17.451935927986902 pbc="F F F"
Eu       0.00000000       0.00000000       0.00000000       0.00000000       0.00000000      -0.06113514
Eu       0.00000000       0.00000000       3.73535354       0.00000000       0.00000000       0.06113514
2
Properties=species:S:1:pos:R:3:forces:R:3 energy=-17.451988921012255 pbc="F F F"
Eu       0.00000000       0.00000000       0.00000000       0.00000000       0.00000000       0.05701017
Eu       0.00000000       0.00000000       3.79494949       0.00000000       0.00000000      -0.05701017
2
Properties=species:S:1:pos:R:3:forces:R:3 energy=-17.445636993640626 pbc="F F F"
Eu       0.00000000       0.00000000       0.00000000       0.00000000       0.00000000       0.15104774
Eu       0.00000000       0.00000000       3.85454545       0.00000000       0.00000000      -0.15104774
2
Properties=species:S:1:pos:R:3:forces:R:3 energy=-17.43458058357219 pbc="F F F"
Eu       0.00000000       0.00000000       0.00000000       0.00000000       0.00000000       0.21557058
Eu       0.00000000       0.00000000       3.91414141       0.00000000       0.00000000      -0.21557058
2
Properties=species:S:1:pos:R:3:forces:R:3 energy=-17.42036548786775 pbc="F F F"
Eu       0.00000000       0.00000000       0.00000000       0.00000000       0.00000000       0.25878993
Eu       0.00000000       0.00000000       3.97373737       0.00000000       0.00000000      -0.25878993
2
Properties=species:S:1:pos:R:3:forces:R:3 energy=-17.403976707955934 pbc="F F F"
Eu       0.00000000       0.00000000       0.00000000       0.00000000       0.00000000       0.28979120
Eu       0.00000000       0.00000000       4.03333333       0.00000000       0.00000000      -0.28979120
2
Properties=species:S:1:pos:R:3:forces:R:3 energy=-17.385956484982717 pbc="F F F"
Eu       0.00000000       0.00000000       0.00000000       0.00000000       0.00000000       0.31403205
Eu       0.00000000       0.00000000       4.09292929       0.00000000       0.00000000      -0.31403205
2
Properties=species:S:1:pos:R:3:forces:R:3 energy=-17.366633287521374 pbc="F F F"
Eu       0.00000000       0.00000000       0.00000000       0.00000000       0.00000000       0.33384964
Eu       0.00000000       0.00000000       4.15252525       0.00000000       0.00000000      -0.33384964
2
Properties=species:S:1:pos:R:3:forces:R:3 energy=-17.34623944042329 pbc="F F F"
Eu       0.00000000       0.00000000       0.00000000       0.00000000       0.00000000       0.34997958
Eu       0.00000000       0.00000000       4.21212121       0.00000000       0.00000000      -0.34997958
2
Properties=species:S:1:pos:R:3:forces:R:3 energy=-17.324985369094815 pbc="F F F"
Eu       0.00000000       0.00000000       0.00000000       0.00000000       0.00000000       0.36267084
Eu       0.00000000       0.00000000       4.27171717       0.00000000       0.00000000      -0.36267084
2
Properties=species:S:1:pos:R:3:forces:R:3 energy=-17.30307355532316 pbc="F F F"
Eu       0.00000000       0.00000000       0.00000000       0.00000000       0.00000000       0.37222332
Eu       0.00000000       0.00000000       4.33131313       0.00000000       0.00000000      -0.37222332
2
Properties=species:S:1:pos:R:3:forces:R:3 energy=-17.280672409340653 pbc="F F F"
Eu       0.00000000       0.00000000       0.00000000       0.00000000       0.00000000       0.37912160
Eu       0.00000000       0.00000000       4.39090909       0.00000000       0.00000000      -0.37912160
2
Properties=species:S:1:pos:R:3:forces:R:3 energy=-17.257924956952174 pbc="F F F"
Eu       0.00000000       0.00000000       0.00000000       0.00000000       0.00000000       0.38398346
Eu       0.00000000       0.00000000       4.45050505       0.00000000       0.00000000      -0.38398346
2
Properties=species:S:1:pos:R:3:forces:R:3 energy=-17.234933688132358 pbc="F F F"
Eu       0.00000000       0.00000000       0.00000000       0.00000000       0.00000000       0.38742599
Eu       0.00000000       0.00000000       4.51010101       0.00000000       0.00000000      -0.38742599
2
Properties=species:S:1:pos:R:3:forces:R:3 energy=-17.21176497994469 pbc="F F F"
Eu       0.00000000       0.00000000       0.00000000       0.00000000       0.00000000       0.38996065
Eu       0.00000000       0.00000000       4.56969697       0.00000000       0.00000000      -0.38996065
2
Properties=species:S:1:pos:R:3:forces:R:3 energy=-17.18846443135832 pbc="F F F"
Eu       0.00000000       0.00000000       0.00000000       0.00000000       0.00000000       0.39191222
Eu       0.00000000       0.00000000       4.62929293       0.00000000       0.00000000      -0.39191222
2
Properties=species:S:1:pos:R:3:forces:R:3 energy=-17.165060804658204 pbc="F F F"
Eu       0.00000000       0.00000000       0.00000000       0.00000000       0.00000000       0.39341682
Eu       0.00000000       0.00000000       4.68888889       0.00000000       0.00000000      -0.39341682
2
Properties=species:S:1:pos:R:3:forces:R:3 energy=-17.141581689715398 pbc="F F F"
Eu       0.00000000       0.00000000       0.00000000       0.00000000       0.00000000       0.39442533
Eu       0.00000000       0.00000000       4.74848485       0.00000000       0.00000000      -0.39442533
2
Properties=species:S:1:pos:R:3:forces:R:3 energy=-17.118062723948025 pbc="F F F"
Eu       0.00000000       0.00000000       0.00000000       0.00000000       0.00000000       0.39474955
Eu       0.00000000       0.00000000       4.80808081       0.00000000       0.00000000      -0.39474955
2
Properties=species:S:1:pos:R:3:forces:R:3 energy=-17.094549867137253 pbc="F F F"
Eu       0.00000000       0.00000000       0.00000000       0.00000000       0.00000000       0.39412361
Eu       0.00000000       0.00000000       4.86767677       0.00000000       0.00000000      -0.39412361
2
Properties=species:S:1:pos:R:3:forces:R:3 energy=-17.071110668121065 pbc="F F F"
Eu       0.00000000       0.00000000       0.00000000       0.00000000       0.00000000       0.39222455
Eu       0.00000000       0.00000000       4.92727273       0.00000000       0.00000000      -0.39222455
2
Properties=species:S:1:pos:R:3:forces:R:3 energy=-17.047832313096123 pbc="F F F"
Eu       0.00000000       0.00000000       0.00000000       0.00000000       0.00000000       0.38870168
Eu       0.00000000       0.00000000       4.98686869       0.00000000       0.00000000      -0.38870168
2
Properties=species:S:1:pos:R:3:forces:R:3 energy=-17.024821923393034 pbc="F F F"
Eu       0.00000000       0.00000000       0.00000000       0.00000000       0.00000000       0.38317883
Eu       0.00000000       0.00000000       5.04646465       0.00000000       0.00000000      -0.38317883
2
Properties=species:S:1:pos:R:3:forces:R:3 energy=-17.00220991400723 pbc="F F F"
Eu       0.00000000       0.00000000       0.00000000       0.00000000       0.00000000       0.37524971
Eu       0.00000000       0.00000000       5.10606061       0.00000000       0.00000000      -0.37524971
2
Properties=species:S:1:pos:R:3:forces:R:3 energy=-16.98014844104643 pbc="F F F"
Eu       0.00000000       0.00000000       0.00000000       0.00000000       0.00000000       0.36448196
Eu       0.00000000       0.00000000       5.16565657       0.00000000       0.00000000      -0.36448196
2
Properties=species:S:1:pos:R:3:forces:R:3 energy=-16.958828358792058 pbc="F F F"
Eu       0.00000000       0.00000000       0.00000000       0.00000000       0.00000000       0.35044029
Eu       0.00000000       0.00000000       5.22525253       0.00000000       0.00000000      -0.35044029
2
Properties=species:S:1:pos:R:3:forces:R:3 energy=-16.938452421783722 pbc="F F F"
Eu       0.00000000       0.00000000       0.00000000       0.00000000       0.00000000       0.33275628
Eu       0.00000000       0.00000000       5.28484848       0.00000000       0.00000000      -0.33275628
2
Properties=species:S:1:pos:R:3:forces:R:3 energy=-16.919242907878104 pbc="F F F"
Eu       0.00000000       0.00000000       0.00000000       0.00000000       0.00000000       0.31122684
Eu       0.00000000       0.00000000       5.34444444       0.00000000       0.00000000      -0.31122684
2
Properties=species:S:1:pos:R:3:forces:R:3 energy=-16.901432018149354 pbc="F F F"
Eu       0.00000000       0.00000000       0.00000000       0.00000000       0.00000000       0.28589451
Eu       0.00000000       0.00000000       5.40404040       0.00000000       0.00000000      -0.28589451
2
Properties=species:S:1:pos:R:3:forces:R:3 energy=-16.8852330955972 pbc="F F F"
Eu       0.00000000       0.00000000       0.00000000       0.00000000       0.00000000       0.25714082
Eu       0.00000000       0.00000000       5.46363636       0.00000000       0.00000000      -0.25714082
2
Properties=species:S:1:pos:R:3:forces:R:3 energy=-16.870840599804367 pbc="F F F"
Eu       0.00000000       0.00000000       0.00000000       0.00000000       0.00000000       0.22572094
Eu       0.00000000       0.00000000       5.52323232       0.00000000       0.00000000      -0.22572094
2
Properties=species:S:1:pos:R:3:forces:R:3 energy=-16.858363267371065 pbc="F F F"
Eu       0.00000000       0.00000000       0.00000000       0.00000000       0.00000000       0.19277126
Eu       0.00000000       0.00000000       5.58282828       0.00000000       0.00000000      -0.19277126
2
Properties=species:S:1:pos:R:3:forces:R:3 energy=-16.847865902522493 pbc="F F F"
Eu       0.00000000       0.00000000       0.00000000       0.00000000       0.00000000       0.15967584
Eu       0.00000000       0.00000000       5.64242424       0.00000000       0.00000000      -0.15967584
2
Properties=species:S:1:pos:R:3:forces:R:3 energy=-16.83930064920164 pbc="F F F"
Eu       0.00000000       0.00000000       0.00000000       0.00000000       0.00000000       0.12794806
Eu       0.00000000       0.00000000       5.70202020       0.00000000       0.00000000      -0.12794806
2
Properties=species:S:1:pos:R:3:forces:R:3 energy=-16.832556518777277 pbc="F F F"
Eu       0.00000000       0.00000000       0.00000000       0.00000000       0.00000000       0.09915230
Eu       0.00000000       0.00000000       5.76161616       0.00000000       0.00000000      -0.09915230
2
Properties=species:S:1:pos:R:3:forces:R:3 energy=-16.82739828519563 pbc="F F F"
Eu       0.00000000       0.00000000       0.00000000       0.00000000       0.00000000       0.07472093
Eu       0.00000000       0.00000000       5.82121212       0.00000000       0.00000000      -0.07472093
2
Properties=species:S:1:pos:R:3:forces:R:3 energy=-16.82354262687023 pbc="F F F"
Eu       0.00000000       0.00000000       0.00000000       0.00000000       0.00000000       0.05588892
Eu       0.00000000       0.00000000       5.88080808       0.00000000       0.00000000      -0.05588892
2
Properties=species:S:1:pos:R:3:forces:R:3 energy=-16.82060280723589 pbc="F F F"
Eu       0.00000000       0.00000000       0.00000000       0.00000000       0.00000000       0.04370919
Eu       0.00000000       0.00000000       5.94040404       0.00000000       0.00000000      -0.04370919
2
Properties=species:S:1:pos:R:3:forces:R:3 energy=-16.81818012611282 pbc="F F F"
Eu       0.00000000       0.00000000       0.00000000       0.00000000       0.00000000       0.03898740
Eu       0.00000000       0.00000000       6.00000000       0.00000000       0.00000000      -0.03898740
