2
Properties=species:S:1:pos:R:3:forces:R:3 energy=12478.696923252633 pbc="F F F"
Eu       0.00000000       0.00000000       0.00000000       0.00000000       0.00000000 -215106.15625000
Eu       0.00000000       0.00000000       0.18000000       0.00000000       0.00000000  215106.15625000
2
Properties=species:S:1:pos:R:3:forces:R:3 energy=4912.3458490338835 pbc="F F F"
Eu       0.00000000       0.00000000       0.00000000       0.00000000       0.00000000  -72273.84375000
Eu       0.00000000       0.00000000       0.23878788       0.00000000       0.00000000   72273.84375000
2
Properties=species:S:1:pos:R:3:forces:R:3 energy=2171.425438877634 pbc="F F F"
Eu       0.00000000       0.00000000       0.00000000       0.00000000       0.00000000  -28592.75585938
Eu       0.00000000       0.00000000       0.29757576       0.00000000       0.00000000   28592.75585938
2
Properties=species:S:1:pos:R:3:forces:R:3 energy=1035.1457757948642 pbc="F F F"
Eu       0.00000000       0.00000000       0.00000000       0.00000000       0.00000000  -12517.05761719
Eu       0.00000000       0.00000000       0.35636364       0.00000000       0.00000000   12517.05761719
2
Properties=species:S:1:pos:R:3:forces:R:3 energy=521.164025306583 pbc="F F F"
Eu       0.00000000       0.00000000       0.00000000       0.00000000       0.00000000   -5885.77099609
Eu       0.00000000       0.00000000       0.41515152       0.00000000       0.00000000    5885.77099609
2
Properties=species:S:1:pos:R:3:forces:R:3 energy=273.1215753585789 pbc="F F F"
Eu       0.00000000       0.00000000       0.00000000       0.00000000       0.00000000   -2930.32543945
Eu       0.00000000       0.00000000       0.47393939       0.00000000       0.00000000    2930.32543945
2
Properties=species:S:1:pos:R:3:forces:R:3 energy=146.83025456413333 pbc="F F F"
Eu       0.00000000       0.00000000       0.00000000       0.00000000       0.00000000   -1532.64575195
Eu       0.00000000       0.00000000       0.53272727       0.00000000       0.00000000    1532.64575195
2
Properties=species:S:1:pos:R:3:forces:R:3 energy=79.43751622818382 pbc="F F F"
Eu       0.00000000       0.00000000       0.00000000       0.00000000       0.00000000    -837.56506348
Eu       0.00000000       0.00000000       0.59151515       0.00000000       0.00000000     837.56506348
2
Properties=species:S:1:pos:R:3:forces:R:3 energy=41.93769934632386 pbc="F F F"
Eu       0.00000000       0.00000000       0.00000000       0.00000000       0.00000000    -475.99194336
Eu       0.00000000       0.00000000       0.65030303       0.00000000       0.00000000     475.99194336
2
Properties=species:S:1:pos:R:3:forces:R:3 energy=20.27786545724974 pbc="F F F"
Eu       0.00000000       0.00000000       0.00000000       0.00000000       0.00000000    -280.14990234
Eu       0.00000000       0.00000000       0.70909091       0.00000000       0.00000000     280.14990234
2
Properties=species:S:1:pos:R:3:forces:R:3 energy=7.3378763989621385 pbc="F F F"
Eu       0.00000000       0.00000000       0.00000000       0.00000000       0.00000000    -170.31767273
Eu       0.00000000       0.00000000       0.76787879       0.00000000       0.00000000     170.31767273
2
Properties=species:S:1:pos:R:3:forces:R:3 energy=-0.6478871064930388 pbc="F F F"
Eu       0.00000000       0.00000000       0.00000000       0.00000000       0.00000000    -107.03665161
Eu       0.00000000       0.00000000       0.82666667       0.00000000       0.00000000     107.03665161
2
Properties=species:S:1:pos:R:3:forces:R:3 energy=-5.75475578703308 pbc="F F F"
Eu       0.00000000       0.00000000       0.00000000       0.00000000       0.00000000     -69.95728302
Eu       0.00000000       0.00000000       0.88545455       0.00000000       0.00000000      69.95728302
2
Properties=species:S:1:pos:R:3:forces:R:3 energy=-9.167900763641677 pbc="F F F"
Eu       0.00000000       0.00000000       0.00000000       0.00000000       0.00000000     -48.06255722
Eu       0.00000000       0.00000000       0.94424242       0.00000000       0.00000000      48.06255722
2
Properties=species:S:1:pos:R:3:forces:R:3 energy=-11.576811391439387 pbc="F F F"
Eu       0.00000000       0.00000000       0.00000000       0.00000000       0.00000000     -34.97174072
Eu       0.00000000       0.00000000       1.00303030       0.00000000       0.00000000      34.97174072
2
Properties=species:S:1:pos:R:3:forces:R:3 energy=-13.372414022006728 pbc="F F F"
Eu       0.00000000       0.00000000       0.00000000       0.00000000       0.00000000     -26.65170670
Eu       0.00000000       0.00000000       1.06181818       0.00000000       0.00000000      26.65170670
2
Properties=species:S:1:pos:R:3:forces:R:3 energy=-14.749251530666891 pbc="F F F"
Eu       0.00000000       0.00000000       0.00000000       0.00000000       0.00000000     -20.33939552
Eu       0.00000000       0.00000000       1.12060606       0.00000000       0.00000000      20.33939552
2
Properties=species:S:1:pos:R:3:forces:R:3 energy=-15.76463305227657 pbc="F F F"
Eu       0.00000000       0.00000000       0.00000000       0.00000000       0.00000000     -14.09595203
Eu       0.00000000       0.00000000       1.17939394       0.00000000       0.00000000      14.09595203
2
Properties=species:S:1:pos:R:3:forces:R:3 energy=-16.387332416022385 pbc="F F F"
Eu       0.00000000       0.00000000       0.00000000       0.00000000       0.00000000      -6.92431211
Eu       0.00000000       0.00000000       1.23818182       0.00000000       0.00000000       6.92431211
2
Properties=species:S:1:pos:R:3:forces:R:3 energy=-16.570153211484953 pbc="F F F"
Eu       0.00000000       0.00000000       0.00000000       0.00000000       0.00000000       0.63219827
Eu       0.00000000       0.00000000       1.29696970       0.00000000       0.00000000      -0.63219827
2
Properties=species:S:1:pos:R:3:forces:R:3 energy=-16.344271026725014 pbc="F F F"
Eu       0.00000000       0.00000000       0.00000000       0.00000000       0.00000000       6.59350824
Eu       0.00000000       0.00000000       1.35575758       0.00000000       0.00000000      -6.59350824
2
Properties=species:S:1:pos:R:3:forces:R:3 energy=-15.864476721031536 pbc="F F F"
Eu       0.00000000       0.00000000       0.00000000       0.00000000       0.00000000       9.08301640
Eu       0.00000000       0.00000000       1.41454545       0.00000000       0.00000000      -9.08301640
2
Properties=species:S:1:pos:R:3:forces:R:3 energy=-15.343361427655301 pbc="F F F"
Eu       0.00000000       0.00000000       0.00000000       0.00000000       0.00000000       8.21767330
Eu       0.00000000       0.00000000       1.47333333       0.00000000       0.00000000      -8.21767330
2
Properties=species:S:1:pos:R:3:forces:R:3 energy=-14.927814804670383 pbc="F F F"
Eu       0.00000000       0.00000000       0.00000000       0.00000000       0.00000000       5.82927561
Eu       0.00000000       0.00000000       1.53212121       0.00000000       0.00000000      -5.82927561
2
Properties=species:S:1:pos:R:3:forces:R:3 energy=-14.655820702075417 pbc="F F F"
Eu       0.00000000       0.00000000       0.00000000       0.00000000       0.00000000       3.51090074
Eu       0.00000000       0.00000000       1.59090909       0.00000000       0.00000000      -3.51090074
2
Properties=species:S:1:pos:R:3:forces:R:3 energy=-14.502779993867863 pbc="F F F"
Eu       0.00000000       0.00000000       0.00000000       0.00000000       0.00000000       1.79377115
Eu       0.00000000       0.00000000       1.64969697       0.00000000       0.00000000      -1.79377115
2
Properties=species:S:1:pos:R:3:forces:R:3 energy=-14.436187606633467 pbc="F F F"
Eu       0.00000000       0.00000000       0.00000000       0.00000000       0.00000000       0.51993465
Eu       0.00000000       0.00000000       1.70848485       0.00000000       0.00000000      -0.51993465
2
Properties=species:S:1:pos:R:3:forces:R:3 energy=-14.438399542152311 pbc="F F F"
Eu       0.00000000       0.00000000       0.00000000       0.00000000       0.00000000      -0.58156109
Eu       0.00000000       0.00000000       1.76727273       0.00000000       0.00000000       0.58156109
2
Properties=species:S:1:pos:R:3:forces:R:3 energy=-14.503307453071367 pbc="F F F"
Eu       0.00000000       0.00000000       0.00000000       0.00000000       0.00000000      -1.61199129
Eu       0.00000000       0.00000000       1.82606061       0.00000000       0.00000000       1.61199129
2
Properties=species:S:1:pos:R:3:forces:R:3 energy=-14.624691399471303 pbc="F F F"
Eu       0.00000000       0.00000000       0.00000000       0.00000000       0.00000000      -2.47271109
Eu       0.00000000       0.00000000       1.88484848       0.00000000       0.00000000       2.47271109
2
Properties=species:S:1:pos:R:3:forces:R:3 energy=-14.78659537400095 pbc="F F F"
Eu       0.00000000       0.00000000       0.00000000       0.00000000       0.00000000      -2.95805836
Eu       0.00000000       0.00000000       1.94363636       0.00000000       0.00000000       2.95805836
2
Properties=species:S:1:pos:R:3:forces:R:3 energy=-14.963563857457283 pbc="F F F"
Eu       0.00000000       0.00000000       0.00000000       0.00000000       0.00000000      -3.00100803
Eu       0.00000000       0.00000000       2.00242424       0.00000000       0.00000000       3.00100803
2
Properties=species:S:1:pos:R:3:forces:R:3 energy=-15.135332994231616 pbc="F F F"
Eu       0.00000000       0.00000000       0.00000000       0.00000000       0.00000000      -2.83372879
Eu       0.00000000       0.00000000       2.06121212       0.00000000       0.00000000       2.83372879
2
Properties=species:S:1:pos:R:3:forces:R:3 energy=-15.297442392525321 pbc="F F F"
Eu       0.00000000       0.00000000       0.00000000       0.00000000       0.00000000      -2.69306898
Eu       0.00000000       0.00000000       2.12000000       0.00000000       0.00000000       2.69306898
2
Properties=species:S:1:pos:R:3:forces:R:3 energy=-15.452997146220527 pbc="F F F"
Eu       0.00000000       0.00000000       0.00000000       0.00000000       0.00000000      -2.60287023
Eu       0.00000000       0.00000000       2.17878788       0.00000000       0.00000000       2.60287023
2
Properties=species:S:1:pos:R:3:forces:R:3 energy=-15.603456320000538 pbc="F F F"
Eu       0.00000000       0.00000000       0.00000000       0.00000000       0.00000000      -2.51304889
Eu       0.00000000       0.00000000       2.23757576       0.00000000       0.00000000       2.51304889
2
Properties=species:S:1:pos:R:3:forces:R:3 energy=-15.748058856418284 pbc="F F F"
Eu       0.00000000       0.00000000       0.00000000       0.00000000       0.00000000      -2.40304375
Eu       0.00000000       0.00000000       2.29636364       0.00000000       0.00000000       2.40304375
2
Properties=species:S:1:pos:R:3:forces:R:3 energy=-15.885670922242756 pbc="F F F"
Eu       0.00000000       0.00000000       0.00000000       0.00000000       0.00000000      -2.27660632
Eu       0.00000000       0.00000000       2.35515152       0.00000000       0.00000000       2.27660632
2
Properties=species:S:1:pos:R:3:forces:R:3 energy=-16.015594709810514 pbc="F F F"
Eu       0.00000000       0.00000000       0.00000000       0.00000000       0.00000000      -2.14305186
Eu       0.00000000       0.00000000       2.41393939       0.00000000       0.00000000       2.14305186
2
Properties=species:S:1:pos:R:3:forces:R:3 energy=-16.137673436235165 pbc="F F F"
Eu       0.00000000       0.00000000       0.00000000       0.00000000       0.00000000      -2.01103377
Eu       0.00000000       0.00000000       2.47272727       0.00000000       0.00000000       2.01103377
2
Properties=species:S:1:pos:R:3:forces:R:3 energy=-16.252218144903825 pbc="F F F"
Eu       0.00000000       0.00000000       0.00000000       0.00000000       0.00000000      -1.88789916
Eu       0.00000000       0.00000000       2.53151515       0.00000000       0.00000000       1.88789916
2
Properties=species:S:1:pos:R:3:forces:R:3 energy=-16.359927729883072 pbc="F F F"
Eu       0.00000000       0.00000000       0.00000000       0.00000000       0.00000000      -1.77918077
Eu       0.00000000       0.00000000       2.59030303       0.00000000       0.00000000       1.77918077
2
Properties=species:S:1:pos:R:3:forces:R:3 energy=-16.46174355594268 pbc="F F F"
Eu       0.00000000       0.00000000       0.00000000       0.00000000       0.00000000      -1.68750823
Eu       0.00000000       0.00000000       2.64909091       0.00000000       0.00000000       1.68750823
2
Properties=species:S:1:pos:R:3:forces:R:3 energy=-16.55865440198364 pbc="F F F"
Eu       0.00000000       0.00000000       0.00000000       0.00000000       0.00000000      -1.61185455
Eu       0.00000000       0.00000000       2.70787879       0.00000000       0.00000000       1.61185455
2
Properties=species:S:1:pos:R:3:forces:R:3 energy=-16.651489298139783 pbc="F F F"
Eu       0.00000000       0.00000000       0.00000000       0.00000000       0.00000000      -1.54788589
Eu       0.00000000       0.00000000       2.76666667       0.00000000       0.00000000       1.54788589
2
Properties=species:S:1:pos:R:3:forces:R:3 energy=-16.74075459936526 pbc="F F F"
Eu       0.00000000       0.00000000       0.00000000       0.00000000       0.00000000      -1.48931849
Eu       0.00000000       0.00000000       2.82545455       0.00000000       0.00000000       1.48931849
2
Properties=species:S:1:pos:R:3:forces:R:3 energy=-16.82657235124022 pbc="F F F"
Eu       0.00000000       0.00000000       0.00000000       0.00000000       0.00000000      -1.42955291
Eu       0.00000000       0.00000000       2.88424242       0.00000000       0.00000000       1.42955291
2
Properties=species:S:1:pos:R:3:forces:R:3 energy=-16.90869941065476 pbc="F F F"
Eu       0.00000000       0.00000000       0.00000000       0.00000000       0.00000000      -1.36289418
Eu       0.00000000       0.00000000       2.94303030       0.00000000       0.00000000       1.36289418
2
Properties=species:S:1:pos:R:3:forces:R:3 energy=-16.98659719026737 pbc="F F F"
Eu       0.00000000       0.00000000       0.00000000       0.00000000       0.00000000      -1.28515506
Eu       0.00000000       0.00000000       3.00181818       0.00000000       0.00000000       1.28515506
2
Properties=species:S:1:pos:R:3:forces:R:3 energy=-17.059536767948778 pbc="F F F"
Eu       0.00000000       0.00000000       0.00000000       0.00000000       0.00000000      -1.19387639
Eu       0.00000000       0.00000000       3.06060606       0.00000000       0.00000000       1.19387639
2
Properties=species:S:1:pos:R:3:forces:R:3 energy=-17.12669108162511 pbc="F F F"
Eu       0.00000000       0.00000000       0.00000000       0.00000000       0.00000000      -1.08854246
Eu       0.00000000       0.00000000       3.11939394       0.00000000       0.00000000       1.08854246
2
Properties=species:S:1:pos:R:3:forces:R:3 energy=-17.18728007941265 pbc="F F F"
Eu       0.00000000       0.00000000       0.00000000       0.00000000       0.00000000      -0.97092026
Eu       0.00000000       0.00000000       3.17818182       0.00000000       0.00000000       0.97092026
2
Properties=species:S:1:pos:R:3:forces:R:3 energy=-17.2406908673528 pbc="F F F"
Eu       0.00000000       0.00000000       0.00000000       0.00000000       0.00000000      -0.84532100
Eu       0.00000000       0.00000000       3.23696970       0.00000000       0.00000000       0.84532100
2
Properties=species:S:1:pos:R:3:forces:R:3 energy=-17.286642089186394 pbc="F F F"
Eu       0.00000000       0.00000000       0.00000000       0.00000000       0.00000000      -0.71836120
Eu       0.00000000       0.00000000       3.29575758       0.00000000       0.00000000       0.71836120
2
Properties=species:S:1:pos:R:3:forces:R:3 energy=-17.32528336597692 pbc="F F F"
Eu       0.00000000       0.00000000       0.00000000       0.00000000       0.00000000      -0.59807849
Eu       0.00000000       0.00000000       3.35454545       0.00000000       0.00000000       0.59807849
2
Properties=species:S:1:pos:R:3:forces:R:3 energy=-17.357252032154076 pbc="F F F"
Eu       0.00000000       0.00000000       0.00000000       0.00000000       0.00000000      -0.49255848
Eu       0.00000000       0.00000000       3.41333333       0.00000000       0.00000000       0.49255848
2
Properties=species:S:1:pos:R:3:forces:R:3 energy=-17.383608719332194 pbc="F F F"
Eu       0.00000000       0.00000000       0.00000000       0.00000000       0.00000000      -0.40787286
Eu       0.00000000       0.00000000       3.47212121       0.00000000       0.00000000       0.40787286
2
Properties=species:S:1:pos:R:3:forces:R:3 energy=-17.405626024122693 pbc="F F F"
Eu       0.00000000       0.00000000       0.00000000       0.00000000       0.00000000      -0.34412390
Eu       0.00000000       0.00000000       3.53090909       0.00000000       0.00000000       0.34412390
2
Properties=species:S:1:pos:R:3:forces:R:3 energy=-17.424255025203138 pbc="F F F"
Eu       0.00000000       0.00000000       0.00000000       0.00000000       0.00000000      -0.28937423
Eu       0.00000000       0.00000000       3.58969697       0.00000000       0.00000000       0.28937423
2
Properties=species:S:1:pos:R:3:forces:R:3 energy=-17.43934971419729 pbc="F F F"
Eu       0.00000000       0.00000000       0.00000000       0.00000000       0.00000000      -0.21949857
Eu       0.00000000       0.00000000       3.64848485       0.00000000       0.00000000       0.21949857
2
Properties=species:S:1:pos:R:3:forces:R:3 energy=-17.449415888981285 pbc="F F F"
Eu       0.00000000       0.00000000       0.00000000       0.00000000       0.00000000      -0.11786836
Eu       0.00000000       0.00000000       3.70727273       0.00000000       0.00000000       0.11786836
2
Properties=species:S:1:pos:R:3:forces:R:3 energy=-17.452846763932847 pbc="F F F"
Eu       0.00000000       0.00000000       0.00000000       0.00000000       0.00000000       0.00150794
Eu       0.00000000       0.00000000       3.76606061       0.00000000       0.00000000      -0.00150794
2
Properties=species:S:1:pos:R:3:forces:R:3 energy=-17.44950290466157 pbc="F F F"
Eu       0.00000000       0.00000000       0.00000000       0.00000000       0.00000000       0.10804680
Eu       0.00000000       0.00000000       3.82484848       0.00000000       0.00000000      -0.10804680
2
Properties=species:S:1:pos:R:3:forces:R:3 energy=-17.440719546578837 pbc="F F F"
Eu       0.00000000       0.00000000       0.00000000       0.00000000       0.00000000       0.18585563
Eu       0.00000000       0.00000000       3.88363636       0.00000000       0.00000000      -0.18585563
2
Properties=species:S:1:pos:R:3:forces:R:3 energy=-17.42815606909608 pbc="F F F"
Eu       0.00000000       0.00000000       0.00000000       0.00000000       0.00000000       0.23811081
Eu       0.00000000       0.00000000       3.94242424       0.00000000       0.00000000      -0.23811081
2
Properties=species:S:1:pos:R:3:forces:R:3 energy=-17.413038761336757 pbc="F F F"
Eu       0.00000000       0.00000000       0.00000000       0.00000000       0.00000000       0.27417946
Eu       0.00000000       0.00000000       4.00121212       0.00000000       0.00000000      -0.27417946
2
Properties=species:S:1:pos:R:3:forces:R:3 energy=-17.39609116370385 pbc="F F F"
Eu       0.00000000       0.00000000       0.00000000       0.00000000       0.00000000       0.30127993
Eu       0.00000000       0.00000000       4.06000000       0.00000000       0.00000000      -0.30127993
2
Properties=species:S:1:pos:R:3:forces:R:3 energy=-17.377718981651157 pbc="F F F"
Eu       0.00000000       0.00000000       0.00000000       0.00000000       0.00000000       0.32310927
Eu       0.00000000       0.00000000       4.11878788       0.00000000       0.00000000      -0.32310927
2
Properties=species:S:1:pos:R:3:forces:R:3 energy=-17.358177611888983 pbc="F F F"
Eu       0.00000000       0.00000000       0.00000000       0.00000000       0.00000000       0.34106165
Eu       0.00000000       0.00000000       4.17757576       0.00000000       0.00000000      -0.34106165
2
Properties=species:S:1:pos:R:3:forces:R:3 energy=-17.337684175001208 pbc="F F F"
Eu       0.00000000       0.00000000       0.00000000       0.00000000       0.00000000       0.35554442
Eu       0.00000000       0.00000000       4.23636364       0.00000000       0.00000000      -0.35554442
2
Properties=species:S:1:pos:R:3:forces:R:3 energy=-17.316438344486116 pbc="F F F"
Eu       0.00000000       0.00000000       0.00000000       0.00000000       0.00000000       0.36677811
Eu       0.00000000       0.00000000       4.29515152       0.00000000       0.00000000      -0.36677811
2
Properties=species:S:1:pos:R:3:forces:R:3 energy=-17.294618542172824 pbc="F F F"
Eu       0.00000000       0.00000000       0.00000000       0.00000000       0.00000000       0.37512255
Eu       0.00000000       0.00000000       4.35393939       0.00000000       0.00000000      -0.37512255
2
Properties=species:S:1:pos:R:3:forces:R:3 energy=-17.272378433011482 pbc="F F F"
Eu       0.00000000       0.00000000       0.00000000       0.00000000       0.00000000       0.38110369
Eu       0.00000000       0.00000000       4.41272727       0.00000000       0.00000000      -0.38110369
2
Properties=species:S:1:pos:R:3:forces:R:3 energy=-17.24984366125738 pbc="F F F"
Eu       0.00000000       0.00000000       0.00000000       0.00000000       0.00000000       0.38533008
Eu       0.00000000       0.00000000       4.47151515       0.00000000       0.00000000      -0.38533008
2
Properties=species:S:1:pos:R:3:forces:R:3 energy=-17.227095774064047 pbc="F F F"
Eu       0.00000000       0.00000000       0.00000000       0.00000000       0.00000000       0.38836795
Eu       0.00000000       0.00000000       4.53030303       0.00000000       0.00000000      -0.38836795
2
Properties=species:S:1:pos:R:3:forces:R:3 energy=-17.204195350421344 pbc="F F F"
Eu       0.00000000       0.00000000       0.00000000       0.00000000       0.00000000       0.39064771
Eu       0.00000000       0.00000000       4.58909091       0.00000000       0.00000000      -0.39064771
2
Properties=species:S:1:pos:R:3:forces:R:3 energy=-17.181176684590792 pbc="F F F"
Eu       0.00000000       0.00000000       0.00000000       0.00000000       0.00000000       0.39242971
Eu       0.00000000       0.00000000       4.64787879       0.00000000       0.00000000      -0.39242971
2
Properties=species:S:1:pos:R:3:forces:R:3 energy=-17.15806324763527 pbc="F F F"
Eu       0.00000000       0.00000000       0.00000000       0.00000000       0.00000000       0.39377582
Eu       0.00000000       0.00000000       4.70666667       0.00000000       0.00000000      -0.39377582
2
Properties=species:S:1:pos:R:3:forces:R:3 energy=-17.134888161402397 pbc="F F F"
Eu       0.00000000       0.00000000       0.00000000       0.00000000       0.00000000       0.39459673
Eu       0.00000000       0.00000000       4.76545455       0.00000000       0.00000000      -0.39459673
2
Properties=species:S:1:pos:R:3:forces:R:3 energy=-17.111681645375324 pbc="F F F"
Eu       0.00000000       0.00000000       0.00000000       0.00000000       0.00000000       0.39468721
Eu       0.00000000       0.00000000       4.82424242       0.00000000       0.00000000      -0.39468721
2
Properties=species:S:1:pos:R:3:forces:R:3 energy=-17.08850301077565 pbc="F F F"
Eu       0.00000000       0.00000000       0.00000000       0.00000000       0.00000000       0.39377093
Eu       0.00000000       0.00000000       4.88303030       0.00000000       0.00000000      -0.39377093
2
Properties=species:S:1:pos:R:3:forces:R:3 energy=-17.065410453431884 pbc="F F F"
Eu       0.00000000       0.00000000       0.00000000       0.00000000       0.00000000       0.39152923
Eu       0.00000000       0.00000000       4.94181818       0.00000000       0.00000000      -0.39152923
2
Properties=species:S:1:pos:R:3:forces:R:3 energy=-17.04250066460562 pbc="F F F"
Eu       0.00000000       0.00000000       0.00000000       0.00000000       0.00000000       0.38762182
Eu       0.00000000       0.00000000       5.00060606       0.00000000       0.00000000      -0.38762182
2
Properties=species:S:1:pos:R:3:forces:R:3 energy=-17.019874859847885 pbc="F F F"
Eu       0.00000000       0.00000000       0.00000000       0.00000000       0.00000000       0.38168162
Eu       0.00000000       0.00000000       5.05939394       0.00000000       0.00000000      -0.38168162
2
Properties=species:S:1:pos:R:3:forces:R:3 energy=-16.99767125461105 pbc="F F F"
Eu       0.00000000       0.00000000       0.00000000       0.00000000       0.00000000       0.37330419
Eu       0.00000000       0.00000000       5.11818182       0.00000000       0.00000000      -0.37330419
2
Properties=species:S:1:pos:R:3:forces:R:3 energy=-16.97603992659179 pbc="F F F"
Eu       0.00000000       0.00000000       0.00000000       0.00000000       0.00000000       0.36207420
Eu       0.00000000       0.00000000       5.17696970       0.00000000       0.00000000      -0.36207420
2
Properties=species:S:1:pos:R:3:forces:R:3 energy=-16.955163961292826 pbc="F F F"
Eu       0.00000000       0.00000000       0.00000000       0.00000000       0.00000000       0.34759536
Eu       0.00000000       0.00000000       5.23575758       0.00000000       0.00000000      -0.34759536
2
Properties=species:S:1:pos:R:3:forces:R:3 energy=-16.935242108487177 pbc="F F F"
Eu       0.00000000       0.00000000       0.00000000       0.00000000       0.00000000       0.32951888
Eu       0.00000000       0.00000000       5.29454545       0.00000000       0.00000000      -0.32951888
2
Properties=species:S:1:pos:R:3:forces:R:3 energy=-16.916494567620493 pbc="F F F"
Eu       0.00000000       0.00000000       0.00000000       0.00000000       0.00000000       0.30768406
Eu       0.00000000       0.00000000       5.35333333       0.00000000       0.00000000      -0.30768406
2
Properties=species:S:1:pos:R:3:forces:R:3 energy=-16.899139960243303 pbc="F F F"
Eu       0.00000000       0.00000000       0.00000000       0.00000000       0.00000000       0.28217560
Eu       0.00000000       0.00000000       5.41212121       0.00000000       0.00000000      -0.28217560
2
Properties=species:S:1:pos:R:3:forces:R:3 energy=-16.88337988748825 pbc="F F F"
Eu       0.00000000       0.00000000       0.00000000       0.00000000       0.00000000       0.25342205
Eu       0.00000000       0.00000000       5.47090909       0.00000000       0.00000000      -0.25342205
2
Properties=species:S:1:pos:R:3:forces:R:3 energy=-16.869389450347743 pbc="F F F"
Eu       0.00000000       0.00000000       0.00000000       0.00000000       0.00000000       0.22220653
Eu       0.00000000       0.00000000       5.52969697       0.00000000       0.00000000      -0.22220653
2
Properties=species:S:1:pos:R:3:forces:R:3 energy=-16.85728088333704 pbc="F F F"
Eu       0.00000000       0.00000000       0.00000000       0.00000000       0.00000000       0.18961315
Eu       0.00000000       0.00000000       5.58848485       0.00000000       0.00000000      -0.18961315
2
Properties=species:S:1:pos:R:3:forces:R:3 energy=-16.84710156478223 pbc="F F F"
Eu       0.00000000       0.00000000       0.00000000       0.00000000       0.00000000       0.15702456
Eu       0.00000000       0.00000000       5.64727273       0.00000000       0.00000000      -0.15702456
2
Properties=species:S:1:pos:R:3:forces:R:3 energy=-16.838793740751413 pbc="F F F"
Eu       0.00000000       0.00000000       0.00000000       0.00000000       0.00000000       0.12588944
Eu       0.00000000       0.00000000       5.70606061       0.00000000       0.00000000      -0.12588944
2
Properties=species:S:1:pos:R:3:forces:R:3 energy=-16.83223084070644 pbc="F F F"
Eu       0.00000000       0.00000000       0.00000000       0.00000000       0.00000000       0.09769785
Eu       0.00000000       0.00000000       5.76484848       0.00000000       0.00000000      -0.09769785
2
Properties=species:S:1:pos:R:3:forces:R:3 energy=-16.827215532140418 pbc="F F F"
Eu       0.00000000       0.00000000       0.00000000       0.00000000       0.00000000       0.07383076
Eu       0.00000000       0.00000000       5.82363636       0.00000000       0.00000000      -0.07383076
2
Properties=species:S:1:pos:R:3:forces:R:3 energy=-16.82344891155995 pbc="F F F"
Eu       0.00000000       0.00000000       0.00000000       0.00000000       0.00000000       0.05547268
Eu       0.00000000       0.00000000       5.88242424       0.00000000       0.00000000      -0.05547268
2
Properties=species:S:1:pos:R:3:forces:R:3 energy=-16.82056882885583 pbc="F F F"
Eu       0.00000000       0.00000000       0.00000000       0.00000000       0.00000000       0.04358580
Eu       0.00000000       0.00000000       5.94121212       0.00000000       0.00000000      -0.04358580
2
Properties=species:S:1:pos:R:3:forces:R:3 energy=-16.81818012611282 pbc="F F F"
Eu       0.00000000       0.00000000       0.00000000       0.00000000       0.00000000       0.03898740
Eu       0.00000000       0.00000000       6.00000000       0.00000000       0.00000000      -0.03898740
