2
Properties=species:S:1:pos:R:3:forces:R:3 energy=4631.738089232115 pbc="F F F"
Ga       0.00000000       0.00000000       0.00000000       0.00000000       0.00000000  -72939.28125000
Ga       0.00000000       0.00000000       0.18000000       0.00000000       0.00000000   72939.28125000
2
Properties=species:S:1:pos:R:3:forces:R:3 energy=1992.2470003649282 pbc="F F F"
Ga       0.00000000       0.00000000       0.00000000       0.00000000       0.00000000  -26219.34179688
Ga       0.00000000       0.00000000       0.23878788       0.00000000       0.00000000   26219.34179688
2
Properties=species:S:1:pos:R:3:forces:R:3 energy=969.1873690236075 pbc="F F F"
Ga       0.00000000       0.00000000       0.00000000       0.00000000       0.00000000  -11095.28125000
Ga       0.00000000       0.00000000       0.29757576       0.00000000       0.00000000   11095.28125000
2
Properties=species:S:1:pos:R:3:forces:R:3 energy=514.8470369923575 pbc="F F F"
Ga       0.00000000       0.00000000       0.00000000       0.00000000       0.00000000   -5203.16748047
Ga       0.00000000       0.00000000       0.35636364       0.00000000       0.00000000    5203.16748047
2
Properties=species:S:1:pos:R:3:forces:R:3 energy=294.9135042838494 pbc="F F F"
Ga       0.00000000       0.00000000       0.00000000       0.00000000       0.00000000   -2608.85815430
Ga       0.00000000       0.00000000       0.41515152       0.00000000       0.00000000    2608.85815430
2
Properties=species:S:1:pos:R:3:forces:R:3 energy=182.2659670619076 pbc="F F F"
Ga       0.00000000       0.00000000       0.00000000       0.00000000       0.00000000   -1367.71289062
Ga       0.00000000       0.00000000       0.47393939       0.00000000       0.00000000    1367.71289062
2
Properties=species:S:1:pos:R:3:forces:R:3 energy=122.32614011875032 pbc="F F F"
Ga       0.00000000       0.00000000       0.00000000       0.00000000       0.00000000    -740.28338623
Ga       0.00000000       0.00000000       0.53272727       0.00000000       0.00000000     740.28338623
2
Properties=species:S:1:pos:R:3:forces:R:3 energy=89.39453767873684 pbc="F F F"
Ga       0.00000000       0.00000000       0.00000000       0.00000000       0.00000000    -415.51727295
Ga       0.00000000       0.00000000       0.59151515       0.00000000       0.00000000     415.51727295
2
Properties=species:S:1:pos:R:3:forces:R:3 energy=70.38976937051126 pbc="F F F"
Ga       0.00000000       0.00000000       0.00000000       0.00000000       0.00000000    -250.06231689
Ga       0.00000000       0.00000000       0.65030303       0.00000000       0.00000000     250.06231689
2
Properties=species:S:1:pos:R:3:forces:R:3 energy=58.408793367145236 pbc="F F F"
Ga       0.00000000       0.00000000       0.00000000       0.00000000       0.00000000    -165.87934875
Ga       0.00000000       0.00000000       0.70909091       0.00000000       0.00000000     165.87934875
2
Properties=species:S:1:pos:R:3:forces:R:3 energy=50.342497889085756 pbc="F F F"
Ga       0.00000000       0.00000000       0.00000000       0.00000000       0.00000000    -111.99317932
Ga       0.00000000       0.00000000       0.76787879       0.00000000       0.00000000     111.99317932
2
Properties=species:S:1:pos:R:3:forces:R:3 energy=44.51883630980191 pbc="F F F"
Ga       0.00000000       0.00000000       0.00000000       0.00000000       0.00000000     -94.39781952
Ga       0.00000000       0.00000000       0.82666667       0.00000000       0.00000000      94.39781952
2
Properties=species:S:1:pos:R:3:forces:R:3 energy=38.50612605212724 pbc="F F F"
Ga       0.00000000       0.00000000       0.00000000       0.00000000       0.00000000    -112.87936401
Ga       0.00000000       0.00000000       0.88545455       0.00000000       0.00000000     112.87936401
2
Properties=species:S:1:pos:R:3:forces:R:3 energy=31.31065759303445 pbc="F F F"
Ga       0.00000000       0.00000000       0.00000000       0.00000000       0.00000000    -128.97932434
Ga       0.00000000       0.00000000       0.94424242       0.00000000       0.00000000     128.97932434
2
Properties=species:S:1:pos:R:3:forces:R:3 energy=23.802092304881988 pbc="F F F"
Ga       0.00000000       0.00000000       0.00000000       0.00000000       0.00000000    -122.46490479
Ga       0.00000000       0.00000000       1.00303030       0.00000000       0.00000000     122.46490479
2
Properties=species:S:1:pos:R:3:forces:R:3 energy=17.270942310644653 pbc="F F F"
Ga       0.00000000       0.00000000       0.00000000       0.00000000       0.00000000     -97.97444916
Ga       0.00000000       0.00000000       1.06181818       0.00000000       0.00000000      97.97444916
2
Properties=species:S:1:pos:R:3:forces:R:3 energy=12.334401849399102 pbc="F F F"
Ga       0.00000000       0.00000000       0.00000000       0.00000000       0.00000000     -70.60123444
Ga       0.00000000       0.00000000       1.12060606       0.00000000       0.00000000      70.60123444
2
Properties=species:S:1:pos:R:3:forces:R:3 energy=8.83385777954573 pbc="F F F"
Ga       0.00000000       0.00000000       0.00000000       0.00000000       0.00000000     -49.77139282
Ga       0.00000000       0.00000000       1.17939394       0.00000000       0.00000000      49.77139282
2
Properties=species:S:1:pos:R:3:forces:R:3 energy=6.362935738453082 pbc="F F F"
Ga       0.00000000       0.00000000       0.00000000       0.00000000       0.00000000     -35.05971146
Ga       0.00000000       0.00000000       1.23818182       0.00000000       0.00000000      35.05971146
2
Properties=species:S:1:pos:R:3:forces:R:3 energy=4.625934781568033 pbc="F F F"
Ga       0.00000000       0.00000000       0.00000000       0.00000000       0.00000000     -24.73710251
Ga       0.00000000       0.00000000       1.29696970       0.00000000       0.00000000      24.73710251
2
Properties=species:S:1:pos:R:3:forces:R:3 energy=3.3856614448256854 pbc="F F F"
Ga       0.00000000       0.00000000       0.00000000       0.00000000       0.00000000     -17.93187904
Ga       0.00000000       0.00000000       1.35575758       0.00000000       0.00000000      17.93187904
2
Properties=species:S:1:pos:R:3:forces:R:3 energy=2.4686286685070398 pbc="F F F"
Ga       0.00000000       0.00000000       0.00000000       0.00000000       0.00000000     -13.63079262
Ga       0.00000000       0.00000000       1.41454545       0.00000000       0.00000000      13.63079262
2
Properties=species:S:1:pos:R:3:forces:R:3 energy=1.7484715485963804 pbc="F F F"
Ga       0.00000000       0.00000000       0.00000000       0.00000000       0.00000000     -11.08455849
Ga       0.00000000       0.00000000       1.47333333       0.00000000       0.00000000      11.08455849
2
Properties=species:S:1:pos:R:3:forces:R:3 energy=1.1482203878362054 pbc="F F F"
Ga       0.00000000       0.00000000       0.00000000       0.00000000       0.00000000      -9.42668629
Ga       0.00000000       0.00000000       1.53212121       0.00000000       0.00000000       9.42668629
2
Properties=species:S:1:pos:R:3:forces:R:3 energy=0.6332306438538401 pbc="F F F"
Ga       0.00000000       0.00000000       0.00000000       0.00000000       0.00000000      -8.13409996
Ga       0.00000000       0.00000000       1.59090909       0.00000000       0.00000000       8.13409996
2
Properties=species:S:1:pos:R:3:forces:R:3 energy=0.18764232004559406 pbc="F F F"
Ga       0.00000000       0.00000000       0.00000000       0.00000000       0.00000000      -7.06044102
Ga       0.00000000       0.00000000       1.64969697       0.00000000       0.00000000       7.06044102
2
Properties=species:S:1:pos:R:3:forces:R:3 energy=-0.20110460071245487 pbc="F F F"
Ga       0.00000000       0.00000000       0.00000000       0.00000000       0.00000000      -6.19923258
Ga       0.00000000       0.00000000       1.70848485       0.00000000       0.00000000       6.19923258
2
Properties=species:S:1:pos:R:3:forces:R:3 energy=-0.5447127443199138 pbc="F F F"
Ga       0.00000000       0.00000000       0.00000000       0.00000000       0.00000000      -5.51406574
Ga       0.00000000       0.00000000       1.76727273       0.00000000       0.00000000       5.51406574
2
Properties=species:S:1:pos:R:3:forces:R:3 energy=-0.8514714012495717 pbc="F F F"
Ga       0.00000000       0.00000000       0.00000000       0.00000000       0.00000000      -4.93414974
Ga       0.00000000       0.00000000       1.82606061       0.00000000       0.00000000       4.93414974
2
Properties=species:S:1:pos:R:3:forces:R:3 energy=-1.1258322981157778 pbc="F F F"
Ga       0.00000000       0.00000000       0.00000000       0.00000000       0.00000000      -4.40534019
Ga       0.00000000       0.00000000       1.88484848       0.00000000       0.00000000       4.40534019
2
Properties=species:S:1:pos:R:3:forces:R:3 energy=-1.3698690718387192 pbc="F F F"
Ga       0.00000000       0.00000000       0.00000000       0.00000000       0.00000000      -3.89911795
Ga       0.00000000       0.00000000       1.94363636       0.00000000       0.00000000       3.89911795
2
Properties=species:S:1:pos:R:3:forces:R:3 energy=-1.5844183498834923 pbc="F F F"
Ga       0.00000000       0.00000000       0.00000000       0.00000000       0.00000000      -3.40064526
Ga       0.00000000       0.00000000       2.00242424       0.00000000       0.00000000       3.40064526
2
Properties=species:S:1:pos:R:3:forces:R:3 energy=-1.769776887353347 pbc="F F F"
Ga       0.00000000       0.00000000       0.00000000       0.00000000       0.00000000      -2.90640974
Ga       0.00000000       0.00000000       2.06121212       0.00000000       0.00000000       2.90640974
2
Properties=species:S:1:pos:R:3:forces:R:3 energy=-1.92635524537727 pbc="F F F"
Ga       0.00000000       0.00000000       0.00000000       0.00000000       0.00000000      -2.42319822
Ga       0.00000000       0.00000000       2.12000000       0.00000000       0.00000000       2.42319822
2
Properties=species:S:1:pos:R:3:forces:R:3 energy=-2.055137774576935 pbc="F F F"
Ga       0.00000000       0.00000000       0.00000000       0.00000000       0.00000000      -1.96309686
Ga       0.00000000       0.00000000       2.17878788       0.00000000       0.00000000       1.96309686
2
Properties=species:S:1:pos:R:3:forces:R:3 energy=-2.1579050354263756 pbc="F F F"
Ga       0.00000000       0.00000000       0.00000000       0.00000000       0.00000000      -1.54068565
Ga       0.00000000       0.00000000       2.23757576       0.00000000       0.00000000       1.54068565
2
Properties=species:S:1:pos:R:3:forces:R:3 energy=-2.2373305288389225 pbc="F F F"
Ga       0.00000000       0.00000000       0.00000000       0.00000000       0.00000000      -1.17149103
Ga       0.00000000       0.00000000       2.29636364       0.00000000       0.00000000       1.17149103
2
Properties=species:S:1:pos:R:3:forces:R:3 energy=-2.296919053461164 pbc="F F F"
Ga       0.00000000       0.00000000       0.00000000       0.00000000       0.00000000      -0.86702013
Ga       0.00000000       0.00000000       2.35515152       0.00000000       0.00000000       0.86702013
2
Properties=species:S:1:pos:R:3:forces:R:3 energy=-2.3405763811444746 pbc="F F F"
Ga       0.00000000       0.00000000       0.00000000       0.00000000       0.00000000      -0.62872618
Ga       0.00000000       0.00000000       2.41393939       0.00000000       0.00000000       0.62872618
2
Properties=species:S:1:pos:R:3:forces:R:3 energy=-2.37193894910948 pbc="F F F"
Ga       0.00000000       0.00000000       0.00000000       0.00000000       0.00000000      -0.44613275
Ga       0.00000000       0.00000000       2.47272727       0.00000000       0.00000000       0.44613275
2
Properties=species:S:1:pos:R:3:forces:R:3 energy=-2.3937557317652196 pbc="F F F"
Ga       0.00000000       0.00000000       0.00000000       0.00000000       0.00000000      -0.30047989
Ga       0.00000000       0.00000000       2.53151515       0.00000000       0.00000000       0.30047989
2
Properties=species:S:1:pos:R:3:forces:R:3 energy=-2.4075855711547662 pbc="F F F"
Ga       0.00000000       0.00000000       0.00000000       0.00000000       0.00000000      -0.17116231
Ga       0.00000000       0.00000000       2.59030303       0.00000000       0.00000000       0.17116231
2
Properties=species:S:1:pos:R:3:forces:R:3 energy=-2.413867625821796 pbc="F F F"
Ga       0.00000000       0.00000000       0.00000000       0.00000000       0.00000000      -0.04147426
Ga       0.00000000       0.00000000       2.64909091       0.00000000       0.00000000       0.04147426
2
Properties=species:S:1:pos:R:3:forces:R:3 energy=-2.4122690840061383 pbc="F F F"
Ga       0.00000000       0.00000000       0.00000000       0.00000000       0.00000000       0.09778813
Ga       0.00000000       0.00000000       2.70787879       0.00000000       0.00000000      -0.09778813
2
Properties=species:S:1:pos:R:3:forces:R:3 energy=-2.4021610145230143 pbc="F F F"
Ga       0.00000000       0.00000000       0.00000000       0.00000000       0.00000000       0.24749152
Ga       0.00000000       0.00000000       2.76666667       0.00000000       0.00000000      -0.24749152
2
Properties=species:S:1:pos:R:3:forces:R:3 energy=-2.3830710031729945 pbc="F F F"
Ga       0.00000000       0.00000000       0.00000000       0.00000000       0.00000000       0.40213493
Ga       0.00000000       0.00000000       2.82545455       0.00000000       0.00000000      -0.40213493
2
Properties=species:S:1:pos:R:3:forces:R:3 energy=-2.354936312698047 pbc="F F F"
Ga       0.00000000       0.00000000       0.00000000       0.00000000       0.00000000       0.55400300
Ga       0.00000000       0.00000000       2.88424242       0.00000000       0.00000000      -0.55400300
2
Properties=species:S:1:pos:R:3:forces:R:3 energy=-2.318099598182504 pbc="F F F"
Ga       0.00000000       0.00000000       0.00000000       0.00000000       0.00000000       0.69757277
Ga       0.00000000       0.00000000       2.94303030       0.00000000       0.00000000      -0.69757277
2
Properties=species:S:1:pos:R:3:forces:R:3 energy=-2.2731229339573806 pbc="F F F"
Ga       0.00000000       0.00000000       0.00000000       0.00000000       0.00000000       0.83072114
Ga       0.00000000       0.00000000       3.00181818       0.00000000       0.00000000      -0.83072114
2
Properties=species:S:1:pos:R:3:forces:R:3 energy=-2.220666173217927 pbc="F F F"
Ga       0.00000000       0.00000000       0.00000000       0.00000000       0.00000000       0.95158654
Ga       0.00000000       0.00000000       3.06060606       0.00000000       0.00000000      -0.95158654
2
Properties=species:S:1:pos:R:3:forces:R:3 energy=-2.1615506208450674 pbc="F F F"
Ga       0.00000000       0.00000000       0.00000000       0.00000000       0.00000000       1.05656219
Ga       0.00000000       0.00000000       3.11939394       0.00000000       0.00000000      -1.05656219
2
Properties=species:S:1:pos:R:3:forces:R:3 energy=-2.096819729041101 pbc="F F F"
Ga       0.00000000       0.00000000       0.00000000       0.00000000       0.00000000       1.14217937
Ga       0.00000000       0.00000000       3.17818182       0.00000000       0.00000000      -1.14217937
2
Properties=species:S:1:pos:R:3:forces:R:3 energy=-2.0276733731502836 pbc="F F F"
Ga       0.00000000       0.00000000       0.00000000       0.00000000       0.00000000       1.20667255
Ga       0.00000000       0.00000000       3.23696970       0.00000000       0.00000000      -1.20667255
2
Properties=species:S:1:pos:R:3:forces:R:3 energy=-1.955360279896601 pbc="F F F"
Ga       0.00000000       0.00000000       0.00000000       0.00000000       0.00000000       1.25002873
Ga       0.00000000       0.00000000       3.29575758       0.00000000       0.00000000      -1.25002873
2
Properties=species:S:1:pos:R:3:forces:R:3 energy=-1.88108696013827 pbc="F F F"
Ga       0.00000000       0.00000000       0.00000000       0.00000000       0.00000000       1.27367711
Ga       0.00000000       0.00000000       3.35454545       0.00000000       0.00000000      -1.27367711
2
Properties=species:S:1:pos:R:3:forces:R:3 energy=-1.8059429252851897 pbc="F F F"
Ga       0.00000000       0.00000000       0.00000000       0.00000000       0.00000000       1.28014767
Ga       0.00000000       0.00000000       3.41333333       0.00000000       0.00000000      -1.28014767
2
Properties=species:S:1:pos:R:3:forces:R:3 energy=-1.7308479571479263 pbc="F F F"
Ga       0.00000000       0.00000000       0.00000000       0.00000000       0.00000000       1.27254593
Ga       0.00000000       0.00000000       3.47212121       0.00000000       0.00000000      -1.27254593
2
Properties=species:S:1:pos:R:3:forces:R:3 energy=-1.656537652800043 pbc="F F F"
Ga       0.00000000       0.00000000       0.00000000       0.00000000       0.00000000       1.25395274
Ga       0.00000000       0.00000000       3.53090909       0.00000000       0.00000000      -1.25395274
2
Properties=species:S:1:pos:R:3:forces:R:3 energy=-1.5835776491858247 pbc="F F F"
Ga       0.00000000       0.00000000       0.00000000       0.00000000       0.00000000       1.22694945
Ga       0.00000000       0.00000000       3.58969697       0.00000000       0.00000000      -1.22694945
2
Properties=species:S:1:pos:R:3:forces:R:3 energy=-1.512406485123757 pbc="F F F"
Ga       0.00000000       0.00000000       0.00000000       0.00000000       0.00000000       1.19337130
Ga       0.00000000       0.00000000       3.64848485       0.00000000       0.00000000      -1.19337130
2
Properties=species:S:1:pos:R:3:forces:R:3 energy=-1.4433742831452436 pbc="F F F"
Ga       0.00000000       0.00000000       0.00000000       0.00000000       0.00000000       1.15431678
Ga       0.00000000       0.00000000       3.70727273       0.00000000       0.00000000      -1.15431678
2
Properties=species:S:1:pos:R:3:forces:R:3 energy=-1.3767835269112612 pbc="F F F"
Ga       0.00000000       0.00000000       0.00000000       0.00000000       0.00000000       1.11029720
Ga       0.00000000       0.00000000       3.76606061       0.00000000       0.00000000      -1.11029720
2
Properties=species:S:1:pos:R:3:forces:R:3 energy=-1.3129244520362322 pbc="F F F"
Ga       0.00000000       0.00000000       0.00000000       0.00000000       0.00000000       1.06145191
Ga       0.00000000       0.00000000       3.82484848       0.00000000       0.00000000      -1.06145191
2
Properties=species:S:1:pos:R:3:forces:R:3 energy=-1.252078165704438 pbc="F F F"
Ga       0.00000000       0.00000000       0.00000000       0.00000000       0.00000000       1.00772631
Ga       0.00000000       0.00000000       3.88363636       0.00000000       0.00000000      -1.00772631
2
Properties=species:S:1:pos:R:3:forces:R:3 energy=-1.1945366951735006 pbc="F F F"
Ga       0.00000000       0.00000000       0.00000000       0.00000000       0.00000000       0.94904649
Ga       0.00000000       0.00000000       3.94242424       0.00000000       0.00000000      -0.94904649
2
Properties=species:S:1:pos:R:3:forces:R:3 energy=-1.1405904676311576 pbc="F F F"
Ga       0.00000000       0.00000000       0.00000000       0.00000000       0.00000000       0.88545448
Ga       0.00000000       0.00000000       4.00121212       0.00000000       0.00000000      -0.88545448
2
Properties=species:S:1:pos:R:3:forces:R:3 energy=-1.0905197251265442 pbc="F F F"
Ga       0.00000000       0.00000000       0.00000000       0.00000000       0.00000000       0.81725585
Ga       0.00000000       0.00000000       4.06000000       0.00000000       0.00000000      -0.81725585
2
Properties=species:S:1:pos:R:3:forces:R:3 energy=-1.044578064184769 pbc="F F F"
Ga       0.00000000       0.00000000       0.00000000       0.00000000       0.00000000       0.74515671
Ga       0.00000000       0.00000000       4.11878788       0.00000000       0.00000000      -0.74515671
2
Properties=species:S:1:pos:R:3:forces:R:3 energy=-1.002960488301291 pbc="F F F"
Ga       0.00000000       0.00000000       0.00000000       0.00000000       0.00000000       0.67034471
Ga       0.00000000       0.00000000       4.17757576       0.00000000       0.00000000      -0.67034471
2
Properties=species:S:1:pos:R:3:forces:R:3 energy=-0.9657810619517954 pbc="F F F"
Ga       0.00000000       0.00000000       0.00000000       0.00000000       0.00000000       0.59450400
Ga       0.00000000       0.00000000       4.23636364       0.00000000       0.00000000      -0.59450400
2
Properties=species:S:1:pos:R:3:forces:R:3 energy=-0.9330410532014858 pbc="F F F"
Ga       0.00000000       0.00000000       0.00000000       0.00000000       0.00000000       0.51969302
Ga       0.00000000       0.00000000       4.29515152       0.00000000       0.00000000      -0.51969302
2
Properties=species:S:1:pos:R:3:forces:R:3 energy=-0.9046140668059577 pbc="F F F"
Ga       0.00000000       0.00000000       0.00000000       0.00000000       0.00000000       0.44815853
Ga       0.00000000       0.00000000       4.35393939       0.00000000       0.00000000      -0.44815853
2
Properties=species:S:1:pos:R:3:forces:R:3 energy=-0.8802418206169331 pbc="F F F"
Ga       0.00000000       0.00000000       0.00000000       0.00000000       0.00000000       0.38207820
Ga       0.00000000       0.00000000       4.41272727       0.00000000       0.00000000      -0.38207820
2
Properties=species:S:1:pos:R:3:forces:R:3 energy=-0.8595460100743936 pbc="F F F"
Ga       0.00000000       0.00000000       0.00000000       0.00000000       0.00000000       0.32336536
Ga       0.00000000       0.00000000       4.47151515       0.00000000       0.00000000      -0.32336536
2
Properties=species:S:1:pos:R:3:forces:R:3 energy=-0.8420479854908943 pbc="F F F"
Ga       0.00000000       0.00000000       0.00000000       0.00000000       0.00000000       0.27349588
Ga       0.00000000       0.00000000       4.53030303       0.00000000       0.00000000      -0.27349588
2
Properties=species:S:1:pos:R:3:forces:R:3 energy=-0.8271981619000396 pbc="F F F"
Ga       0.00000000       0.00000000       0.00000000       0.00000000       0.00000000       0.23337835
Ga       0.00000000       0.00000000       4.58909091       0.00000000       0.00000000      -0.23337835
2
Properties=species:S:1:pos:R:3:forces:R:3 energy=-0.8144122422574191 pbc="F F F"
Ga       0.00000000       0.00000000       0.00000000       0.00000000       0.00000000       0.20325443
Ga       0.00000000       0.00000000       4.64787879       0.00000000       0.00000000      -0.20325443
2
Properties=species:S:1:pos:R:3:forces:R:3 energy=-0.8031138272580268 pbc="F F F"
Ga       0.00000000       0.00000000       0.00000000       0.00000000       0.00000000       0.18261351
Ga       0.00000000       0.00000000       4.70666667       0.00000000       0.00000000      -0.18261351
2
Properties=species:S:1:pos:R:3:forces:R:3 energy=-0.7927795950730234 pbc="F F F"
Ga       0.00000000       0.00000000       0.00000000       0.00000000       0.00000000       0.17020717
Ga       0.00000000       0.00000000       4.76545455       0.00000000       0.00000000      -0.17020717
2
Properties=species:S:1:pos:R:3:forces:R:3 energy=-0.7829757756405418 pbc="F F F"
Ga       0.00000000       0.00000000       0.00000000       0.00000000       0.00000000       0.16419302
Ga       0.00000000       0.00000000       4.82424242       0.00000000       0.00000000      -0.16419302
2
Properties=species:S:1:pos:R:3:forces:R:3 energy=-0.773392153239632 pbc="F F F"
Ga       0.00000000       0.00000000       0.00000000       0.00000000       0.00000000       0.16240120
Ga       0.00000000       0.00000000       4.88303030       0.00000000       0.00000000      -0.16240120
2
Properties=species:S:1:pos:R:3:forces:R:3 energy=-0.7638414787793275 pbc="F F F"
Ga       0.00000000       0.00000000       0.00000000       0.00000000       0.00000000       0.16267073
Ga       0.00000000       0.00000000       4.94181818       0.00000000       0.00000000      -0.16267073
2
Properties=species:S:1:pos:R:3:forces:R:3 energy=-0.7542623292376837 pbc="F F F"
Ga       0.00000000       0.00000000       0.00000000       0.00000000       0.00000000       0.16312197
Ga       0.00000000       0.00000000       5.00060606       0.00000000       0.00000000      -0.16312197
2
Properties=species:S:1:pos:R:3:forces:R:3 energy=-0.7446865809487522 pbc="F F F"
Ga       0.00000000       0.00000000       0.00000000       0.00000000       0.00000000       0.16232738
Ga       0.00000000       0.00000000       5.05939394       0.00000000       0.00000000      -0.16232738
2
Properties=species:S:1:pos:R:3:forces:R:3 energy=-0.7352196862168286 pbc="F F F"
Ga       0.00000000       0.00000000       0.00000000       0.00000000       0.00000000       0.15934700
Ga       0.00000000       0.00000000       5.11818182       0.00000000       0.00000000      -0.15934700
2
Properties=species:S:1:pos:R:3:forces:R:3 energy=-0.7260044948809848 pbc="F F F"
Ga       0.00000000       0.00000000       0.00000000       0.00000000       0.00000000       0.15369362
Ga       0.00000000       0.00000000       5.17696970       0.00000000       0.00000000      -0.15369362
2
Properties=species:S:1:pos:R:3:forces:R:3 energy=-0.7172037891542146 pbc="F F F"
Ga       0.00000000       0.00000000       0.00000000       0.00000000       0.00000000       0.14527240
Ga       0.00000000       0.00000000       5.23575758       0.00000000       0.00000000      -0.14527240
2
Properties=species:S:1:pos:R:3:forces:R:3 energy=-0.708974083922245 pbc="F F F"
Ga       0.00000000       0.00000000       0.00000000       0.00000000       0.00000000       0.13431409
Ga       0.00000000       0.00000000       5.29454545       0.00000000       0.00000000      -0.13431409
2
Properties=species:S:1:pos:R:3:forces:R:3 energy=-0.701451876077591 pbc="F F F"
Ga       0.00000000       0.00000000       0.00000000       0.00000000       0.00000000       0.12129939
Ga       0.00000000       0.00000000       5.35333333       0.00000000       0.00000000      -0.12129939
2
Properties=species:S:1:pos:R:3:forces:R:3 energy=-0.6947396390119439 pbc="F F F"
Ga       0.00000000       0.00000000       0.00000000       0.00000000       0.00000000       0.10690401
Ga       0.00000000       0.00000000       5.41212121       0.00000000       0.00000000      -0.10690401
2
Properties=species:S:1:pos:R:3:forces:R:3 energy=-0.688895059518045 pbc="F F F"
Ga       0.00000000       0.00000000       0.00000000       0.00000000       0.00000000       0.09187058
Ga       0.00000000       0.00000000       5.47090909       0.00000000       0.00000000      -0.09187058
2
Properties=species:S:1:pos:R:3:forces:R:3 energy=-0.6839352782229953 pbc="F F F"
Ga       0.00000000       0.00000000       0.00000000       0.00000000       0.00000000       0.07692577
Ga       0.00000000       0.00000000       5.52969697       0.00000000       0.00000000      -0.07692577
2
Properties=species:S:1:pos:R:3:forces:R:3 energy=-0.679836612155876 pbc="F F F"
Ga       0.00000000       0.00000000       0.00000000       0.00000000       0.00000000       0.06268157
Ga       0.00000000       0.00000000       5.58848485       0.00000000       0.00000000      -0.06268157
2
Properties=species:S:1:pos:R:3:forces:R:3 energy=-0.67654417723009 pbc="F F F"
Ga       0.00000000       0.00000000       0.00000000       0.00000000       0.00000000       0.04960634
Ga       0.00000000       0.00000000       5.64727273       0.00000000       0.00000000      -0.04960634
2
Properties=species:S:1:pos:R:3:forces:R:3 energy=-0.6739757417464486 pbc="F F F"
Ga       0.00000000       0.00000000       0.00000000       0.00000000       0.00000000       0.03801447
Ga       0.00000000       0.00000000       5.70606061       0.00000000       0.00000000      -0.03801447
2
Properties=species:S:1:pos:R:3:forces:R:3 energy=-0.6720385164800415 pbc="F F F"
Ga       0.00000000       0.00000000       0.00000000       0.00000000       0.00000000       0.02810077
Ga       0.00000000       0.00000000       5.76484848       0.00000000       0.00000000      -0.02810077
2
Properties=species:S:1:pos:R:3:forces:R:3 energy=-0.670633830769018 pbc="F F F"
Ga       0.00000000       0.00000000       0.00000000       0.00000000       0.00000000       0.02001860
Ga       0.00000000       0.00000000       5.82363636       0.00000000       0.00000000      -0.02001860
2
Properties=species:S:1:pos:R:3:forces:R:3 energy=-0.6696486090503828 pbc="F F F"
Ga       0.00000000       0.00000000       0.00000000       0.00000000       0.00000000       0.01389934
Ga       0.00000000       0.00000000       5.88242424       0.00000000       0.00000000      -0.01389934
2
Properties=species:S:1:pos:R:3:forces:R:3 energy=-0.6689591233687724 pbc="F F F"
Ga       0.00000000       0.00000000       0.00000000       0.00000000       0.00000000       0.00989687
Ga       0.00000000       0.00000000       5.94121212       0.00000000       0.00000000      -0.00989687
2
Properties=species:S:1:pos:R:3:forces:R:3 energy=-0.668439160796699 pbc="F F F"
Ga       0.00000000       0.00000000       0.00000000       0.00000000       0.00000000       0.00820687
Ga       0.00000000       0.00000000       6.00000000       0.00000000       0.00000000      -0.00820687
