2
Properties=species:S:1:pos:R:3:forces:R:3 energy=12742.225767483842 pbc="F F F"
Gd       0.00000000       0.00000000       0.00000000       0.00000000       0.00000000 -220216.54687500
Gd       0.00000000       0.00000000       0.18000000       0.00000000       0.00000000  220216.54687500
2
Properties=species:S:1:pos:R:3:forces:R:3 energy=5001.320982327593 pbc="F F F"
Gd       0.00000000       0.00000000       0.00000000       0.00000000       0.00000000  -73869.75000000
Gd       0.00000000       0.00000000       0.23878788       0.00000000       0.00000000   73869.75000000
2
Properties=species:S:1:pos:R:3:forces:R:3 energy=2201.8910506869674 pbc="F F F"
Gd       0.00000000       0.00000000       0.00000000       0.00000000       0.00000000  -29173.99414062
Gd       0.00000000       0.00000000       0.29757576       0.00000000       0.00000000   29173.99414062
2
Properties=species:S:1:pos:R:3:forces:R:3 energy=1043.3894637729052 pbc="F F F"
Gd       0.00000000       0.00000000       0.00000000       0.00000000       0.00000000  -12749.27148438
Gd       0.00000000       0.00000000       0.35636364       0.00000000       0.00000000   12749.27148438
2
Properties=species:S:1:pos:R:3:forces:R:3 energy=520.2527450292407 pbc="F F F"
Gd       0.00000000       0.00000000       0.00000000       0.00000000       0.00000000   -5985.20654297
Gd       0.00000000       0.00000000       0.41515152       0.00000000       0.00000000    5985.20654297
2
Properties=species:S:1:pos:R:3:forces:R:3 energy=268.1835006508108 pbc="F F F"
Gd       0.00000000       0.00000000       0.00000000       0.00000000       0.00000000   -2975.58300781
Gd       0.00000000       0.00000000       0.47393939       0.00000000       0.00000000    2975.58300781
2
Properties=species:S:1:pos:R:3:forces:R:3 energy=140.0136703475521 pbc="F F F"
Gd       0.00000000       0.00000000       0.00000000       0.00000000       0.00000000   -1554.40319824
Gd       0.00000000       0.00000000       0.53272727       0.00000000       0.00000000    1554.40319824
2
Properties=species:S:1:pos:R:3:forces:R:3 energy=71.69990390607377 pbc="F F F"
Gd       0.00000000       0.00000000       0.00000000       0.00000000       0.00000000    -848.46063232
Gd       0.00000000       0.00000000       0.59151515       0.00000000       0.00000000     848.46063232
2
Properties=species:S:1:pos:R:3:forces:R:3 energy=33.73617028366323 pbc="F F F"
Gd       0.00000000       0.00000000       0.00000000       0.00000000       0.00000000    -481.45330811
Gd       0.00000000       0.00000000       0.65030303       0.00000000       0.00000000     481.45330811
2
Properties=species:S:1:pos:R:3:forces:R:3 energy=11.852682664610585 pbc="F F F"
Gd       0.00000000       0.00000000       0.00000000       0.00000000       0.00000000    -282.54373169
Gd       0.00000000       0.00000000       0.70909091       0.00000000       0.00000000     282.54373169
2
Properties=species:S:1:pos:R:3:forces:R:3 energy=-1.1635868798431308 pbc="F F F"
Gd       0.00000000       0.00000000       0.00000000       0.00000000       0.00000000    -170.60821533
Gd       0.00000000       0.00000000       0.76787879       0.00000000       0.00000000     170.60821533
2
Properties=species:S:1:pos:R:3:forces:R:3 energy=-9.112207485977414 pbc="F F F"
Gd       0.00000000       0.00000000       0.00000000       0.00000000       0.00000000    -105.48813629
Gd       0.00000000       0.00000000       0.82666667       0.00000000       0.00000000     105.48813629
2
Properties=species:S:1:pos:R:3:forces:R:3 energy=-14.07226255846639 pbc="F F F"
Gd       0.00000000       0.00000000       0.00000000       0.00000000       0.00000000     -66.48160553
Gd       0.00000000       0.00000000       0.88545455       0.00000000       0.00000000      66.48160553
2
Properties=species:S:1:pos:R:3:forces:R:3 energy=-17.219581972028905 pbc="F F F"
Gd       0.00000000       0.00000000       0.00000000       0.00000000       0.00000000     -42.46651459
Gd       0.00000000       0.00000000       0.94424242       0.00000000       0.00000000      42.46651459
2
Properties=species:S:1:pos:R:3:forces:R:3 energy=-19.23526746865539 pbc="F F F"
Gd       0.00000000       0.00000000       0.00000000       0.00000000       0.00000000     -27.20815659
Gd       0.00000000       0.00000000       1.00303030       0.00000000       0.00000000      27.20815659
2
Properties=species:S:1:pos:R:3:forces:R:3 energy=-20.51846224833305 pbc="F F F"
Gd       0.00000000       0.00000000       0.00000000       0.00000000       0.00000000     -17.09616470
Gd       0.00000000       0.00000000       1.06181818       0.00000000       0.00000000      17.09616470
2
Properties=species:S:1:pos:R:3:forces:R:3 energy=-21.305545864782893 pbc="F F F"
Gd       0.00000000       0.00000000       0.00000000       0.00000000       0.00000000     -10.09158421
Gd       0.00000000       0.00000000       1.12060606       0.00000000       0.00000000      10.09158421
2
Properties=species:S:1:pos:R:3:forces:R:3 energy=-21.746832611045733 pbc="F F F"
Gd       0.00000000       0.00000000       0.00000000       0.00000000       0.00000000      -5.24645281
Gd       0.00000000       0.00000000       1.17939394       0.00000000       0.00000000       5.24645281
2
Properties=species:S:1:pos:R:3:forces:R:3 energy=-21.95976358212636 pbc="F F F"
Gd       0.00000000       0.00000000       0.00000000       0.00000000       0.00000000      -2.31274366
Gd       0.00000000       0.00000000       1.23818182       0.00000000       0.00000000       2.31274366
2
Properties=species:S:1:pos:R:3:forces:R:3 energy=-22.054610143183176 pbc="F F F"
Gd       0.00000000       0.00000000       0.00000000       0.00000000       0.00000000      -1.19634771
Gd       0.00000000       0.00000000       1.29696970       0.00000000       0.00000000       1.19634771
2
Properties=species:S:1:pos:R:3:forces:R:3 energy=-22.12823309747292 pbc="F F F"
Gd       0.00000000       0.00000000       0.00000000       0.00000000       0.00000000      -1.48418880
Gd       0.00000000       0.00000000       1.35575758       0.00000000       0.00000000       1.48418880
2
Properties=species:S:1:pos:R:3:forces:R:3 energy=-22.240912151802828 pbc="F F F"
Gd       0.00000000       0.00000000       0.00000000       0.00000000       0.00000000      -2.37052131
Gd       0.00000000       0.00000000       1.41454545       0.00000000       0.00000000       2.37052131
2
Properties=species:S:1:pos:R:3:forces:R:3 energy=-22.400759164873584 pbc="F F F"
Gd       0.00000000       0.00000000       0.00000000       0.00000000       0.00000000      -2.95034575
Gd       0.00000000       0.00000000       1.47333333       0.00000000       0.00000000       2.95034575
2
Properties=species:S:1:pos:R:3:forces:R:3 energy=-22.56875913033168 pbc="F F F"
Gd       0.00000000       0.00000000       0.00000000       0.00000000       0.00000000      -2.57448602
Gd       0.00000000       0.00000000       1.53212121       0.00000000       0.00000000       2.57448602
2
Properties=species:S:1:pos:R:3:forces:R:3 energy=-22.680887930899683 pbc="F F F"
Gd       0.00000000       0.00000000       0.00000000       0.00000000       0.00000000      -1.06601989
Gd       0.00000000       0.00000000       1.59090909       0.00000000       0.00000000       1.06601989
2
Properties=species:S:1:pos:R:3:forces:R:3 energy=-22.678728990924178 pbc="F F F"
Gd       0.00000000       0.00000000       0.00000000       0.00000000       0.00000000       1.21407855
Gd       0.00000000       0.00000000       1.64969697       0.00000000       0.00000000      -1.21407855
2
Properties=species:S:1:pos:R:3:forces:R:3 energy=-22.536832329514354 pbc="F F F"
Gd       0.00000000       0.00000000       0.00000000       0.00000000       0.00000000       3.56391501
Gd       0.00000000       0.00000000       1.70848485       0.00000000       0.00000000      -3.56391501
2
Properties=species:S:1:pos:R:3:forces:R:3 energy=-22.271087814704405 pbc="F F F"
Gd       0.00000000       0.00000000       0.00000000       0.00000000       0.00000000       5.34443569
Gd       0.00000000       0.00000000       1.76727273       0.00000000       0.00000000      -5.34443569
2
Properties=species:S:1:pos:R:3:forces:R:3 energy=-21.926272071558593 pbc="F F F"
Gd       0.00000000       0.00000000       0.00000000       0.00000000       0.00000000       6.22452831
Gd       0.00000000       0.00000000       1.82606061       0.00000000       0.00000000      -6.22452831
2
Properties=species:S:1:pos:R:3:forces:R:3 energy=-21.55838645283836 pbc="F F F"
Gd       0.00000000       0.00000000       0.00000000       0.00000000       0.00000000       6.13218021
Gd       0.00000000       0.00000000       1.88484848       0.00000000       0.00000000      -6.13218021
2
Properties=species:S:1:pos:R:3:forces:R:3 energy=-21.222316448998505 pbc="F F F"
Gd       0.00000000       0.00000000       0.00000000       0.00000000       0.00000000       5.17972946
Gd       0.00000000       0.00000000       1.94363636       0.00000000       0.00000000      -5.17972946
2
Properties=species:S:1:pos:R:3:forces:R:3 energy=-20.95907918057078 pbc="F F F"
Gd       0.00000000       0.00000000       0.00000000       0.00000000       0.00000000       3.73885798
Gd       0.00000000       0.00000000       2.00242424       0.00000000       0.00000000      -3.73885798
2
Properties=species:S:1:pos:R:3:forces:R:3 energy=-20.78202946552268 pbc="F F F"
Gd       0.00000000       0.00000000       0.00000000       0.00000000       0.00000000       2.32301998
Gd       0.00000000       0.00000000       2.06121212       0.00000000       0.00000000      -2.32301998
2
Properties=species:S:1:pos:R:3:forces:R:3 energy=-20.67984095448538 pbc="F F F"
Gd       0.00000000       0.00000000       0.00000000       0.00000000       0.00000000       1.20802116
Gd       0.00000000       0.00000000       2.12000000       0.00000000       0.00000000      -1.20802116
2
Properties=species:S:1:pos:R:3:forces:R:3 energy=-20.634305552544635 pbc="F F F"
Gd       0.00000000       0.00000000       0.00000000       0.00000000       0.00000000       0.38180393
Gd       0.00000000       0.00000000       2.17878788       0.00000000       0.00000000      -0.38180393
2
Properties=species:S:1:pos:R:3:forces:R:3 energy=-20.630980182288372 pbc="F F F"
Gd       0.00000000       0.00000000       0.00000000       0.00000000       0.00000000      -0.24049459
Gd       0.00000000       0.00000000       2.23757576       0.00000000       0.00000000       0.24049459
2
Properties=species:S:1:pos:R:3:forces:R:3 energy=-20.659747607661135 pbc="F F F"
Gd       0.00000000       0.00000000       0.00000000       0.00000000       0.00000000      -0.71744561
Gd       0.00000000       0.00000000       2.29636364       0.00000000       0.00000000       0.71744561
2
Properties=species:S:1:pos:R:3:forces:R:3 energy=-20.71319321058552 pbc="F F F"
Gd       0.00000000       0.00000000       0.00000000       0.00000000       0.00000000      -1.08479512
Gd       0.00000000       0.00000000       2.35515152       0.00000000       0.00000000       1.08479512
2
Properties=species:S:1:pos:R:3:forces:R:3 energy=-20.785611287667017 pbc="F F F"
Gd       0.00000000       0.00000000       0.00000000       0.00000000       0.00000000      -1.36598527
Gd       0.00000000       0.00000000       2.41393939       0.00000000       0.00000000       1.36598527
2
Properties=species:S:1:pos:R:3:forces:R:3 energy=-20.872375669494726 pbc="F F F"
Gd       0.00000000       0.00000000       0.00000000       0.00000000       0.00000000      -1.57421529
Gd       0.00000000       0.00000000       2.47272727       0.00000000       0.00000000       1.57421529
2
Properties=species:S:1:pos:R:3:forces:R:3 energy=-20.969373098713213 pbc="F F F"
Gd       0.00000000       0.00000000       0.00000000       0.00000000       0.00000000      -1.71455896
Gd       0.00000000       0.00000000       2.53151515       0.00000000       0.00000000       1.71455896
2
Properties=species:S:1:pos:R:3:forces:R:3 energy=-21.07267149074459 pbc="F F F"
Gd       0.00000000       0.00000000       0.00000000       0.00000000       0.00000000      -1.78892219
Gd       0.00000000       0.00000000       2.59030303       0.00000000       0.00000000       1.78892219
2
Properties=species:S:1:pos:R:3:forces:R:3 energy=-21.178493116866047 pbc="F F F"
Gd       0.00000000       0.00000000       0.00000000       0.00000000       0.00000000      -1.80149090
Gd       0.00000000       0.00000000       2.64909091       0.00000000       0.00000000       1.80149090
2
Properties=species:S:1:pos:R:3:forces:R:3 energy=-21.283447433791594 pbc="F F F"
Gd       0.00000000       0.00000000       0.00000000       0.00000000       0.00000000      -1.76138949
Gd       0.00000000       0.00000000       2.70787879       0.00000000       0.00000000       1.76138949
2
Properties=species:S:1:pos:R:3:forces:R:3 energy=-21.38479982342431 pbc="F F F"
Gd       0.00000000       0.00000000       0.00000000       0.00000000       0.00000000      -1.68097305
Gd       0.00000000       0.00000000       2.76666667       0.00000000       0.00000000       1.68097305
2
Properties=species:S:1:pos:R:3:forces:R:3 energy=-21.480515626601647 pbc="F F F"
Gd       0.00000000       0.00000000       0.00000000       0.00000000       0.00000000      -1.57105029
Gd       0.00000000       0.00000000       2.82545455       0.00000000       0.00000000       1.57105029
2
Properties=species:S:1:pos:R:3:forces:R:3 energy=-21.569042641994855 pbc="F F F"
Gd       0.00000000       0.00000000       0.00000000       0.00000000       0.00000000      -1.43663323
Gd       0.00000000       0.00000000       2.88424242       0.00000000       0.00000000       1.43663323
2
Properties=species:S:1:pos:R:3:forces:R:3 energy=-21.648923889987007 pbc="F F F"
Gd       0.00000000       0.00000000       0.00000000       0.00000000       0.00000000      -1.27637827
Gd       0.00000000       0.00000000       2.94303030       0.00000000       0.00000000       1.27637827
2
Properties=species:S:1:pos:R:3:forces:R:3 energy=-21.7185268642018 pbc="F F F"
Gd       0.00000000       0.00000000       0.00000000       0.00000000       0.00000000      -1.08629310
Gd       0.00000000       0.00000000       3.00181818       0.00000000       0.00000000       1.08629310
2
Properties=species:S:1:pos:R:3:forces:R:3 energy=-21.77603956475082 pbc="F F F"
Gd       0.00000000       0.00000000       0.00000000       0.00000000       0.00000000      -0.86552715
Gd       0.00000000       0.00000000       3.06060606       0.00000000       0.00000000       0.86552715
2
Properties=species:S:1:pos:R:3:forces:R:3 energy=-21.819817876439227 pbc="F F F"
Gd       0.00000000       0.00000000       0.00000000       0.00000000       0.00000000      -0.62084490
Gd       0.00000000       0.00000000       3.11939394       0.00000000       0.00000000       0.62084490
2
Properties=species:S:1:pos:R:3:forces:R:3 energy=-21.848856367095806 pbc="F F F"
Gd       0.00000000       0.00000000       0.00000000       0.00000000       0.00000000      -0.36710858
Gd       0.00000000       0.00000000       3.17818182       0.00000000       0.00000000       0.36710858
2
Properties=species:S:1:pos:R:3:forces:R:3 energy=-21.86318143581019 pbc="F F F"
Gd       0.00000000       0.00000000       0.00000000       0.00000000       0.00000000      -0.12356874
Gd       0.00000000       0.00000000       3.23696970       0.00000000       0.00000000       0.12356874
2
Properties=species:S:1:pos:R:3:forces:R:3 energy=-21.863940926640375 pbc="F F F"
Gd       0.00000000       0.00000000       0.00000000       0.00000000       0.00000000       0.09182195
Gd       0.00000000       0.00000000       3.29575758       0.00000000       0.00000000      -0.09182195
2
Properties=species:S:1:pos:R:3:forces:R:3 energy=-21.85318088012366 pbc="F F F"
Gd       0.00000000       0.00000000       0.00000000       0.00000000       0.00000000       0.26685676
Gd       0.00000000       0.00000000       3.35454545       0.00000000       0.00000000      -0.26685676
2
Properties=species:S:1:pos:R:3:forces:R:3 energy=-21.833454634512872 pbc="F F F"
Gd       0.00000000       0.00000000       0.00000000       0.00000000       0.00000000       0.39668569
Gd       0.00000000       0.00000000       3.41333333       0.00000000       0.00000000      -0.39668569
2
Properties=species:S:1:pos:R:3:forces:R:3 energy=-21.807399293009574 pbc="F F F"
Gd       0.00000000       0.00000000       0.00000000       0.00000000       0.00000000       0.48281649
Gd       0.00000000       0.00000000       3.47212121       0.00000000       0.00000000      -0.48281649
2
Properties=species:S:1:pos:R:3:forces:R:3 energy=-21.77743258837998 pbc="F F F"
Gd       0.00000000       0.00000000       0.00000000       0.00000000       0.00000000       0.53094900
Gd       0.00000000       0.00000000       3.53090909       0.00000000       0.00000000      -0.53094900
2
Properties=species:S:1:pos:R:3:forces:R:3 energy=-21.745566013474093 pbc="F F F"
Gd       0.00000000       0.00000000       0.00000000       0.00000000       0.00000000       0.54878575
Gd       0.00000000       0.00000000       3.58969697       0.00000000       0.00000000      -0.54878575
2
Properties=species:S:1:pos:R:3:forces:R:3 energy=-21.71334172032971 pbc="F F F"
Gd       0.00000000       0.00000000       0.00000000       0.00000000       0.00000000       0.54446781
Gd       0.00000000       0.00000000       3.64848485       0.00000000       0.00000000      -0.54446781
2
Properties=species:S:1:pos:R:3:forces:R:3 energy=-21.681832881304153 pbc="F F F"
Gd       0.00000000       0.00000000       0.00000000       0.00000000       0.00000000       0.52574992
Gd       0.00000000       0.00000000       3.70727273       0.00000000       0.00000000      -0.52574992
2
Properties=species:S:1:pos:R:3:forces:R:3 energy=-21.651668041111392 pbc="F F F"
Gd       0.00000000       0.00000000       0.00000000       0.00000000       0.00000000       0.49976957
Gd       0.00000000       0.00000000       3.76606061       0.00000000       0.00000000      -0.49976957
2
Properties=species:S:1:pos:R:3:forces:R:3 energy=-21.623086835413638 pbc="F F F"
Gd       0.00000000       0.00000000       0.00000000       0.00000000       0.00000000       0.47302854
Gd       0.00000000       0.00000000       3.82484848       0.00000000       0.00000000      -0.47302854
2
Properties=species:S:1:pos:R:3:forces:R:3 energy=-21.595955084883638 pbc="F F F"
Gd       0.00000000       0.00000000       0.00000000       0.00000000       0.00000000       0.45114419
Gd       0.00000000       0.00000000       3.88363636       0.00000000       0.00000000      -0.45114419
2
Properties=species:S:1:pos:R:3:forces:R:3 energy=-21.569864116717774 pbc="F F F"
Gd       0.00000000       0.00000000       0.00000000       0.00000000       0.00000000       0.43825167
Gd       0.00000000       0.00000000       3.94242424       0.00000000       0.00000000      -0.43825167
2
Properties=species:S:1:pos:R:3:forces:R:3 energy=-21.544212742613393 pbc="F F F"
Gd       0.00000000       0.00000000       0.00000000       0.00000000       0.00000000       0.43632126
Gd       0.00000000       0.00000000       4.00121212       0.00000000       0.00000000      -0.43632126
2
Properties=species:S:1:pos:R:3:forces:R:3 energy=-21.518356133332485 pbc="F F F"
Gd       0.00000000       0.00000000       0.00000000       0.00000000       0.00000000       0.44488063
Gd       0.00000000       0.00000000       4.06000000       0.00000000       0.00000000      -0.44488063
2
Properties=species:S:1:pos:R:3:forces:R:3 energy=-21.49174889519172 pbc="F F F"
Gd       0.00000000       0.00000000       0.00000000       0.00000000       0.00000000       0.46136999
Gd       0.00000000       0.00000000       4.11878788       0.00000000       0.00000000      -0.46136999
2
Properties=species:S:1:pos:R:3:forces:R:3 energy=-21.464029044087443 pbc="F F F"
Gd       0.00000000       0.00000000       0.00000000       0.00000000       0.00000000       0.48202348
Gd       0.00000000       0.00000000       4.17757576       0.00000000       0.00000000      -0.48202348
2
Properties=species:S:1:pos:R:3:forces:R:3 energy=-21.435069567265202 pbc="F F F"
Gd       0.00000000       0.00000000       0.00000000       0.00000000       0.00000000       0.50289804
Gd       0.00000000       0.00000000       4.23636364       0.00000000       0.00000000      -0.50289804
2
Properties=species:S:1:pos:R:3:forces:R:3 energy=-21.40496128886028 pbc="F F F"
Gd       0.00000000       0.00000000       0.00000000       0.00000000       0.00000000       0.52069169
Gd       0.00000000       0.00000000       4.29515152       0.00000000       0.00000000      -0.52069169
2
Properties=species:S:1:pos:R:3:forces:R:3 energy=-21.373953837124738 pbc="F F F"
Gd       0.00000000       0.00000000       0.00000000       0.00000000       0.00000000       0.53320229
Gd       0.00000000       0.00000000       4.35393939       0.00000000       0.00000000      -0.53320229
2
Properties=species:S:1:pos:R:3:forces:R:3 energy=-21.342392651237372 pbc="F F F"
Gd       0.00000000       0.00000000       0.00000000       0.00000000       0.00000000       0.53944314
Gd       0.00000000       0.00000000       4.41272727       0.00000000       0.00000000      -0.53944314
2
Properties=species:S:1:pos:R:3:forces:R:3 energy=-21.31065046880841 pbc="F F F"
Gd       0.00000000       0.00000000       0.00000000       0.00000000       0.00000000       0.53953189
Gd       0.00000000       0.00000000       4.47151515       0.00000000       0.00000000      -0.53953189
2
Properties=species:S:1:pos:R:3:forces:R:3 energy=-21.279058616979206 pbc="F F F"
Gd       0.00000000       0.00000000       0.00000000       0.00000000       0.00000000       0.53444618
Gd       0.00000000       0.00000000       4.53030303       0.00000000       0.00000000      -0.53444618
2
Properties=species:S:1:pos:R:3:forces:R:3 energy=-21.24788414324559 pbc="F F F"
Gd       0.00000000       0.00000000       0.00000000       0.00000000       0.00000000       0.52571446
Gd       0.00000000       0.00000000       4.58909091       0.00000000       0.00000000      -0.52571446
2
Properties=species:S:1:pos:R:3:forces:R:3 energy=-21.217286060480895 pbc="F F F"
Gd       0.00000000       0.00000000       0.00000000       0.00000000       0.00000000       0.51508397
Gd       0.00000000       0.00000000       4.64787879       0.00000000       0.00000000      -0.51508397
2
Properties=species:S:1:pos:R:3:forces:R:3 energy=-21.18732664530796 pbc="F F F"
Gd       0.00000000       0.00000000       0.00000000       0.00000000       0.00000000       0.50415456
Gd       0.00000000       0.00000000       4.70666667       0.00000000       0.00000000      -0.50415456
2
Properties=species:S:1:pos:R:3:forces:R:3 energy=-21.157992532975666 pbc="F F F"
Gd       0.00000000       0.00000000       0.00000000       0.00000000       0.00000000       0.49410152
Gd       0.00000000       0.00000000       4.76545455       0.00000000       0.00000000      -0.49410152
2
Properties=species:S:1:pos:R:3:forces:R:3 energy=-21.129204165403085 pbc="F F F"
Gd       0.00000000       0.00000000       0.00000000       0.00000000       0.00000000       0.48545486
Gd       0.00000000       0.00000000       4.82424242       0.00000000       0.00000000      -0.48545486
2
Properties=species:S:1:pos:R:3:forces:R:3 energy=-21.100892104131738 pbc="F F F"
Gd       0.00000000       0.00000000       0.00000000       0.00000000       0.00000000       0.47797954
Gd       0.00000000       0.00000000       4.88303030       0.00000000       0.00000000      -0.47797954
2
Properties=species:S:1:pos:R:3:forces:R:3 energy=-21.073000686631737 pbc="F F F"
Gd       0.00000000       0.00000000       0.00000000       0.00000000       0.00000000       0.47073302
Gd       0.00000000       0.00000000       4.94181818       0.00000000       0.00000000      -0.47073302
2
Properties=species:S:1:pos:R:3:forces:R:3 energy=-21.045566252938315 pbc="F F F"
Gd       0.00000000       0.00000000       0.00000000       0.00000000       0.00000000       0.46226597
Gd       0.00000000       0.00000000       5.00060606       0.00000000       0.00000000      -0.46226597
2
Properties=species:S:1:pos:R:3:forces:R:3 energy=-21.018703756197525 pbc="F F F"
Gd       0.00000000       0.00000000       0.00000000       0.00000000       0.00000000       0.45094436
Gd       0.00000000       0.00000000       5.05939394       0.00000000       0.00000000      -0.45094436
2
Properties=species:S:1:pos:R:3:forces:R:3 energy=-20.992631355457863 pbc="F F F"
Gd       0.00000000       0.00000000       0.00000000       0.00000000       0.00000000       0.43532592
Gd       0.00000000       0.00000000       5.11818182       0.00000000       0.00000000      -0.43532592
2
Properties=species:S:1:pos:R:3:forces:R:3 energy=-20.96762462029613 pbc="F F F"
Gd       0.00000000       0.00000000       0.00000000       0.00000000       0.00000000       0.41447684
Gd       0.00000000       0.00000000       5.17696970       0.00000000       0.00000000      -0.41447684
2
Properties=species:S:1:pos:R:3:forces:R:3 energy=-20.94400693071784 pbc="F F F"
Gd       0.00000000       0.00000000       0.00000000       0.00000000       0.00000000       0.38815492
Gd       0.00000000       0.00000000       5.23575758       0.00000000       0.00000000      -0.38815492
2
Properties=species:S:1:pos:R:3:forces:R:3 energy=-20.922086344582997 pbc="F F F"
Gd       0.00000000       0.00000000       0.00000000       0.00000000       0.00000000       0.35682577
Gd       0.00000000       0.00000000       5.29454545       0.00000000       0.00000000      -0.35682577
2
Properties=species:S:1:pos:R:3:forces:R:3 energy=-20.90213081474516 pbc="F F F"
Gd       0.00000000       0.00000000       0.00000000       0.00000000       0.00000000       0.32152447
Gd       0.00000000       0.00000000       5.35333333       0.00000000       0.00000000      -0.32152447
2
Properties=species:S:1:pos:R:3:forces:R:3 energy=-20.88433372372753 pbc="F F F"
Gd       0.00000000       0.00000000       0.00000000       0.00000000       0.00000000       0.28366530
Gd       0.00000000       0.00000000       5.41212121       0.00000000       0.00000000      -0.28366530
2
Properties=species:S:1:pos:R:3:forces:R:3 energy=-20.868798491885347 pbc="F F F"
Gd       0.00000000       0.00000000       0.00000000       0.00000000       0.00000000       0.24479203
Gd       0.00000000       0.00000000       5.47090909       0.00000000       0.00000000      -0.24479203
2
Properties=species:S:1:pos:R:3:forces:R:3 energy=-20.85554049425799 pbc="F F F"
Gd       0.00000000       0.00000000       0.00000000       0.00000000       0.00000000       0.20637438
Gd       0.00000000       0.00000000       5.52969697       0.00000000       0.00000000      -0.20637438
2
Properties=species:S:1:pos:R:3:forces:R:3 energy=-20.844500332813865 pbc="F F F"
Gd       0.00000000       0.00000000       0.00000000       0.00000000       0.00000000       0.16967447
Gd       0.00000000       0.00000000       5.58848485       0.00000000       0.00000000      -0.16967447
2
Properties=species:S:1:pos:R:3:forces:R:3 energy=-20.835541853074027 pbc="F F F"
Gd       0.00000000       0.00000000       0.00000000       0.00000000       0.00000000       0.13576023
Gd       0.00000000       0.00000000       5.64727273       0.00000000       0.00000000      -0.13576023
2
Properties=species:S:1:pos:R:3:forces:R:3 energy=-20.828469253229073 pbc="F F F"
Gd       0.00000000       0.00000000       0.00000000       0.00000000       0.00000000       0.10541487
Gd       0.00000000       0.00000000       5.70606061       0.00000000       0.00000000      -0.10541487
2
Properties=species:S:1:pos:R:3:forces:R:3 energy=-20.823055754557284 pbc="F F F"
Gd       0.00000000       0.00000000       0.00000000       0.00000000       0.00000000       0.07926980
Gd       0.00000000       0.00000000       5.76484848       0.00000000       0.00000000      -0.07926980
2
Properties=species:S:1:pos:R:3:forces:R:3 energy=-20.819049256946215 pbc="F F F"
Gd       0.00000000       0.00000000       0.00000000       0.00000000       0.00000000       0.05788146
Gd       0.00000000       0.00000000       5.82363636       0.00000000       0.00000000      -0.05788146
2
Properties=species:S:1:pos:R:3:forces:R:3 energy=-20.8161532210569 pbc="F F F"
Gd       0.00000000       0.00000000       0.00000000       0.00000000       0.00000000       0.04173207
Gd       0.00000000       0.00000000       5.88242424       0.00000000       0.00000000      -0.04173207
2
Properties=species:S:1:pos:R:3:forces:R:3 energy=-20.8140344054243 pbc="F F F"
Gd       0.00000000       0.00000000       0.00000000       0.00000000       0.00000000       0.03130033
Gd       0.00000000       0.00000000       5.94121212       0.00000000       0.00000000      -0.03130033
2
Properties=species:S:1:pos:R:3:forces:R:3 energy=-20.812349493310457 pbc="F F F"
Gd       0.00000000       0.00000000       0.00000000       0.00000000       0.00000000       0.02710294
Gd       0.00000000       0.00000000       6.00000000       0.00000000       0.00000000      -0.02710294
