2
Properties=species:S:1:pos:R:3:forces:R:3 energy=12742.225767483842 pbc="F F F"
Gd       0.00000000       0.00000000       0.00000000       0.00000000       0.00000000 -220216.54687500
Gd       0.00000000       0.00000000       0.18000000       0.00000000       0.00000000  220216.54687500
2
Properties=species:S:1:pos:R:3:forces:R:3 energy=5001.320982327593 pbc="F F F"
Gd       0.00000000       0.00000000       0.00000000       0.00000000       0.00000000  -73869.75000000
Gd       0.00000000       0.00000000       0.23878788       0.00000000       0.00000000   73869.75000000
2
Properties=species:S:1:pos:R:3:forces:R:3 energy=2201.8910506869674 pbc="F F F"
Gd       0.00000000       0.00000000       0.00000000       0.00000000       0.00000000  -29173.99414062
Gd       0.00000000       0.00000000       0.29757576       0.00000000       0.00000000   29173.99414062
2
Properties=species:S:1:pos:R:3:forces:R:3 energy=1043.3894637729052 pbc="F F F"
Gd       0.00000000       0.00000000       0.00000000       0.00000000       0.00000000  -12749.27246094
Gd       0.00000000       0.00000000       0.35636364       0.00000000       0.00000000   12749.27246094
2
Properties=species:S:1:pos:R:3:forces:R:3 energy=520.2527450292407 pbc="F F F"
Gd       0.00000000       0.00000000       0.00000000       0.00000000       0.00000000   -5985.20654297
Gd       0.00000000       0.00000000       0.41515152       0.00000000       0.00000000    5985.20654297
2
Properties=species:S:1:pos:R:3:forces:R:3 energy=268.1835006508108 pbc="F F F"
Gd       0.00000000       0.00000000       0.00000000       0.00000000       0.00000000   -2975.58300781
Gd       0.00000000       0.00000000       0.47393939       0.00000000       0.00000000    2975.58300781
2
Properties=species:S:1:pos:R:3:forces:R:3 energy=140.0136703475521 pbc="F F F"
Gd       0.00000000       0.00000000       0.00000000       0.00000000       0.00000000   -1554.40319824
Gd       0.00000000       0.00000000       0.53272727       0.00000000       0.00000000    1554.40319824
2
Properties=species:S:1:pos:R:3:forces:R:3 energy=71.69990390607377 pbc="F F F"
Gd       0.00000000       0.00000000       0.00000000       0.00000000       0.00000000    -848.46063232
Gd       0.00000000       0.00000000       0.59151515       0.00000000       0.00000000     848.46063232
2
Properties=species:S:1:pos:R:3:forces:R:3 energy=33.736162654268696 pbc="F F F"
Gd       0.00000000       0.00000000       0.00000000       0.00000000       0.00000000    -481.45330811
Gd       0.00000000       0.00000000       0.65030303       0.00000000       0.00000000     481.45330811
2
Properties=species:S:1:pos:R:3:forces:R:3 energy=11.852682664610585 pbc="F F F"
Gd       0.00000000       0.00000000       0.00000000       0.00000000       0.00000000    -282.54370117
Gd       0.00000000       0.00000000       0.70909091       0.00000000       0.00000000     282.54370117
2
Properties=species:S:1:pos:R:3:forces:R:3 energy=-1.1635906945403964 pbc="F F F"
Gd       0.00000000       0.00000000       0.00000000       0.00000000       0.00000000    -170.60821533
Gd       0.00000000       0.00000000       0.76787879       0.00000000       0.00000000     170.60821533
2
Properties=species:S:1:pos:R:3:forces:R:3 energy=-9.11220843965173 pbc="F F F"
Gd       0.00000000       0.00000000       0.00000000       0.00000000       0.00000000    -105.48812866
Gd       0.00000000       0.00000000       0.82666667       0.00000000       0.00000000     105.48812866
2
Properties=species:S:1:pos:R:3:forces:R:3 energy=-14.072266373163655 pbc="F F F"
Gd       0.00000000       0.00000000       0.00000000       0.00000000       0.00000000     -66.48160553
Gd       0.00000000       0.00000000       0.88545455       0.00000000       0.00000000      66.48160553
2
Properties=species:S:1:pos:R:3:forces:R:3 energy=-17.219581972028905 pbc="F F F"
Gd       0.00000000       0.00000000       0.00000000       0.00000000       0.00000000     -42.46651840
Gd       0.00000000       0.00000000       0.94424242       0.00000000       0.00000000      42.46651840
2
Properties=species:S:1:pos:R:3:forces:R:3 energy=-19.235269376004023 pbc="F F F"
Gd       0.00000000       0.00000000       0.00000000       0.00000000       0.00000000     -27.20815659
Gd       0.00000000       0.00000000       1.00303030       0.00000000       0.00000000      27.20815659
2
Properties=species:S:1:pos:R:3:forces:R:3 energy=-20.518464155681684 pbc="F F F"
Gd       0.00000000       0.00000000       0.00000000       0.00000000       0.00000000     -17.09615898
Gd       0.00000000       0.00000000       1.06181818       0.00000000       0.00000000      17.09615898
2
Properties=species:S:1:pos:R:3:forces:R:3 energy=-21.305542050085627 pbc="F F F"
Gd       0.00000000       0.00000000       0.00000000       0.00000000       0.00000000     -10.09157753
Gd       0.00000000       0.00000000       1.12060606       0.00000000       0.00000000      10.09157753
2
Properties=species:S:1:pos:R:3:forces:R:3 energy=-21.746828796348467 pbc="F F F"
Gd       0.00000000       0.00000000       0.00000000       0.00000000       0.00000000      -5.24645329
Gd       0.00000000       0.00000000       1.17939394       0.00000000       0.00000000       5.24645329
2
Properties=species:S:1:pos:R:3:forces:R:3 energy=-21.959765489474993 pbc="F F F"
Gd       0.00000000       0.00000000       0.00000000       0.00000000       0.00000000      -2.31273246
Gd       0.00000000       0.00000000       1.23818182       0.00000000       0.00000000       2.31273246
2
Properties=species:S:1:pos:R:3:forces:R:3 energy=-22.054610143183176 pbc="F F F"
Gd       0.00000000       0.00000000       0.00000000       0.00000000       0.00000000      -1.19635653
Gd       0.00000000       0.00000000       1.29696970       0.00000000       0.00000000       1.19635653
2
Properties=species:S:1:pos:R:3:forces:R:3 energy=-22.128231190124286 pbc="F F F"
Gd       0.00000000       0.00000000       0.00000000       0.00000000       0.00000000      -1.48419499
Gd       0.00000000       0.00000000       1.35575758       0.00000000       0.00000000       1.48419499
2
Properties=species:S:1:pos:R:3:forces:R:3 energy=-22.240912151802828 pbc="F F F"
Gd       0.00000000       0.00000000       0.00000000       0.00000000       0.00000000      -2.37051749
Gd       0.00000000       0.00000000       1.41454545       0.00000000       0.00000000       2.37051749
2
Properties=species:S:1:pos:R:3:forces:R:3 energy=-22.40075725752495 pbc="F F F"
Gd       0.00000000       0.00000000       0.00000000       0.00000000       0.00000000      -2.95034671
Gd       0.00000000       0.00000000       1.47333333       0.00000000       0.00000000       2.95034671
2
Properties=species:S:1:pos:R:3:forces:R:3 energy=-22.56875722298305 pbc="F F F"
Gd       0.00000000       0.00000000       0.00000000       0.00000000       0.00000000      -2.57448554
Gd       0.00000000       0.00000000       1.53212121       0.00000000       0.00000000       2.57448554
2
Properties=species:S:1:pos:R:3:forces:R:3 energy=-22.680887930899683 pbc="F F F"
Gd       0.00000000       0.00000000       0.00000000       0.00000000       0.00000000      -1.06601739
Gd       0.00000000       0.00000000       1.59090909       0.00000000       0.00000000       1.06601739
2
Properties=species:S:1:pos:R:3:forces:R:3 energy=-22.67873089827281 pbc="F F F"
Gd       0.00000000       0.00000000       0.00000000       0.00000000       0.00000000       1.21406901
Gd       0.00000000       0.00000000       1.64969697       0.00000000       0.00000000      -1.21406901
2
Properties=species:S:1:pos:R:3:forces:R:3 energy=-22.536832329514354 pbc="F F F"
Gd       0.00000000       0.00000000       0.00000000       0.00000000       0.00000000       3.56391740
Gd       0.00000000       0.00000000       1.70848485       0.00000000       0.00000000      -3.56391740
2
Properties=species:S:1:pos:R:3:forces:R:3 energy=-22.271087814704405 pbc="F F F"
Gd       0.00000000       0.00000000       0.00000000       0.00000000       0.00000000       5.34443760
Gd       0.00000000       0.00000000       1.76727273       0.00000000       0.00000000      -5.34443760
2
Properties=species:S:1:pos:R:3:forces:R:3 energy=-21.926272071558593 pbc="F F F"
Gd       0.00000000       0.00000000       0.00000000       0.00000000       0.00000000       6.22453499
Gd       0.00000000       0.00000000       1.82606061       0.00000000       0.00000000      -6.22453499
2
Properties=species:S:1:pos:R:3:forces:R:3 energy=-21.558388360186992 pbc="F F F"
Gd       0.00000000       0.00000000       0.00000000       0.00000000       0.00000000       6.13218355
Gd       0.00000000       0.00000000       1.88484848       0.00000000       0.00000000      -6.13218355
2
Properties=species:S:1:pos:R:3:forces:R:3 energy=-21.222316448998505 pbc="F F F"
Gd       0.00000000       0.00000000       0.00000000       0.00000000       0.00000000       5.17973137
Gd       0.00000000       0.00000000       1.94363636       0.00000000       0.00000000      -5.17973137
2
Properties=species:S:1:pos:R:3:forces:R:3 energy=-20.95907918057078 pbc="F F F"
Gd       0.00000000       0.00000000       0.00000000       0.00000000       0.00000000       3.73886013
Gd       0.00000000       0.00000000       2.00242424       0.00000000       0.00000000      -3.73886013
2
Properties=species:S:1:pos:R:3:forces:R:3 energy=-20.78202946552268 pbc="F F F"
Gd       0.00000000       0.00000000       0.00000000       0.00000000       0.00000000       2.32301855
Gd       0.00000000       0.00000000       2.06121212       0.00000000       0.00000000      -2.32301855
2
Properties=species:S:1:pos:R:3:forces:R:3 energy=-20.67984095448538 pbc="F F F"
Gd       0.00000000       0.00000000       0.00000000       0.00000000       0.00000000       1.20802224
Gd       0.00000000       0.00000000       2.12000000       0.00000000       0.00000000      -1.20802224
2
Properties=species:S:1:pos:R:3:forces:R:3 energy=-20.634305552544635 pbc="F F F"
Gd       0.00000000       0.00000000       0.00000000       0.00000000       0.00000000       0.38180324
Gd       0.00000000       0.00000000       2.17878788       0.00000000       0.00000000      -0.38180324
2
Properties=species:S:1:pos:R:3:forces:R:3 energy=-20.63097827493974 pbc="F F F"
Gd       0.00000000       0.00000000       0.00000000       0.00000000       0.00000000      -0.24049188
Gd       0.00000000       0.00000000       2.23757576       0.00000000       0.00000000       0.24049188
2
Properties=species:S:1:pos:R:3:forces:R:3 energy=-20.659747607661135 pbc="F F F"
Gd       0.00000000       0.00000000       0.00000000       0.00000000       0.00000000      -0.71744376
Gd       0.00000000       0.00000000       2.29636364       0.00000000       0.00000000       0.71744376
2
Properties=species:S:1:pos:R:3:forces:R:3 energy=-20.71319319791423 pbc="F F F"
Gd       0.00000000       0.00000000       0.00000000       0.00000000       0.00000000      -1.08479619
Gd       0.00000000       0.00000000       2.35515152       0.00000000       0.00000000       1.08479619
2
Properties=species:S:1:pos:R:3:forces:R:3 energy=-20.78561319501565 pbc="F F F"
Gd       0.00000000       0.00000000       0.00000000       0.00000000       0.00000000      -1.36598349
Gd       0.00000000       0.00000000       2.41393939       0.00000000       0.00000000       1.36598349
2
Properties=species:S:1:pos:R:3:forces:R:3 energy=-20.872375669494726 pbc="F F F"
Gd       0.00000000       0.00000000       0.00000000       0.00000000       0.00000000      -1.57421577
Gd       0.00000000       0.00000000       2.47272727       0.00000000       0.00000000       1.57421577
2
Properties=species:S:1:pos:R:3:forces:R:3 energy=-20.969373098713213 pbc="F F F"
Gd       0.00000000       0.00000000       0.00000000       0.00000000       0.00000000      -1.71455991
Gd       0.00000000       0.00000000       2.53151515       0.00000000       0.00000000       1.71455991
2
Properties=species:S:1:pos:R:3:forces:R:3 energy=-21.07267149074459 pbc="F F F"
Gd       0.00000000       0.00000000       0.00000000       0.00000000       0.00000000      -1.78892159
Gd       0.00000000       0.00000000       2.59030303       0.00000000       0.00000000       1.78892159
2
Properties=species:S:1:pos:R:3:forces:R:3 energy=-21.178493116866047 pbc="F F F"
Gd       0.00000000       0.00000000       0.00000000       0.00000000       0.00000000      -1.80149031
Gd       0.00000000       0.00000000       2.64909091       0.00000000       0.00000000       1.80149031
2
Properties=species:S:1:pos:R:3:forces:R:3 energy=-21.283449341140226 pbc="F F F"
Gd       0.00000000       0.00000000       0.00000000       0.00000000       0.00000000      -1.76138961
Gd       0.00000000       0.00000000       2.70787879       0.00000000       0.00000000       1.76138961
2
Properties=species:S:1:pos:R:3:forces:R:3 energy=-21.38479982342431 pbc="F F F"
Gd       0.00000000       0.00000000       0.00000000       0.00000000       0.00000000      -1.68097103
Gd       0.00000000       0.00000000       2.76666667       0.00000000       0.00000000       1.68097103
2
Properties=species:S:1:pos:R:3:forces:R:3 energy=-21.480515626601647 pbc="F F F"
Gd       0.00000000       0.00000000       0.00000000       0.00000000       0.00000000      -1.57105148
Gd       0.00000000       0.00000000       2.82545455       0.00000000       0.00000000       1.57105148
2
Properties=species:S:1:pos:R:3:forces:R:3 energy=-21.569042641994855 pbc="F F F"
Gd       0.00000000       0.00000000       0.00000000       0.00000000       0.00000000      -1.43663108
Gd       0.00000000       0.00000000       2.88424242       0.00000000       0.00000000       1.43663108
2
Properties=species:S:1:pos:R:3:forces:R:3 energy=-21.648923889987007 pbc="F F F"
Gd       0.00000000       0.00000000       0.00000000       0.00000000       0.00000000      -1.27637839
Gd       0.00000000       0.00000000       2.94303030       0.00000000       0.00000000       1.27637839
2
Properties=species:S:1:pos:R:3:forces:R:3 energy=-21.718526876873085 pbc="F F F"
Gd       0.00000000       0.00000000       0.00000000       0.00000000       0.00000000      -1.08629310
Gd       0.00000000       0.00000000       3.00181818       0.00000000       0.00000000       1.08629310
2
Properties=species:S:1:pos:R:3:forces:R:3 energy=-21.776041472099454 pbc="F F F"
Gd       0.00000000       0.00000000       0.00000000       0.00000000       0.00000000      -0.86552733
Gd       0.00000000       0.00000000       3.06060606       0.00000000       0.00000000       0.86552733
2
Properties=species:S:1:pos:R:3:forces:R:3 energy=-21.819817876439227 pbc="F F F"
Gd       0.00000000       0.00000000       0.00000000       0.00000000       0.00000000      -0.62084478
Gd       0.00000000       0.00000000       3.11939394       0.00000000       0.00000000       0.62084478
2
Properties=species:S:1:pos:R:3:forces:R:3 energy=-21.848856367095806 pbc="F F F"
Gd       0.00000000       0.00000000       0.00000000       0.00000000       0.00000000      -0.36710885
Gd       0.00000000       0.00000000       3.17818182       0.00000000       0.00000000       0.36710885
2
Properties=species:S:1:pos:R:3:forces:R:3 energy=-21.86318143581019 pbc="F F F"
Gd       0.00000000       0.00000000       0.00000000       0.00000000       0.00000000      -0.12356805
Gd       0.00000000       0.00000000       3.23696970       0.00000000       0.00000000       0.12356805
2
Properties=species:S:1:pos:R:3:forces:R:3 energy=-21.863940926640375 pbc="F F F"
Gd       0.00000000       0.00000000       0.00000000       0.00000000       0.00000000       0.09182284
Gd       0.00000000       0.00000000       3.29575758       0.00000000       0.00000000      -0.09182284
2
Properties=species:S:1:pos:R:3:forces:R:3 energy=-21.85318089279495 pbc="F F F"
Gd       0.00000000       0.00000000       0.00000000       0.00000000       0.00000000       0.26685640
Gd       0.00000000       0.00000000       3.35454545       0.00000000       0.00000000      -0.26685640
2
Properties=species:S:1:pos:R:3:forces:R:3 energy=-21.833454634512872 pbc="F F F"
Gd       0.00000000       0.00000000       0.00000000       0.00000000       0.00000000       0.39668497
Gd       0.00000000       0.00000000       3.41333333       0.00000000       0.00000000      -0.39668497
2
Properties=species:S:1:pos:R:3:forces:R:3 energy=-21.807399293009574 pbc="F F F"
Gd       0.00000000       0.00000000       0.00000000       0.00000000       0.00000000       0.48281640
Gd       0.00000000       0.00000000       3.47212121       0.00000000       0.00000000      -0.48281640
2
Properties=species:S:1:pos:R:3:forces:R:3 energy=-21.77743258837998 pbc="F F F"
Gd       0.00000000       0.00000000       0.00000000       0.00000000       0.00000000       0.53094918
Gd       0.00000000       0.00000000       3.53090909       0.00000000       0.00000000      -0.53094918
2
Properties=species:S:1:pos:R:3:forces:R:3 energy=-21.745566013474093 pbc="F F F"
Gd       0.00000000       0.00000000       0.00000000       0.00000000       0.00000000       0.54878551
Gd       0.00000000       0.00000000       3.58969697       0.00000000       0.00000000      -0.54878551
2
Properties=species:S:1:pos:R:3:forces:R:3 energy=-21.71334172032971 pbc="F F F"
Gd       0.00000000       0.00000000       0.00000000       0.00000000       0.00000000       0.54446739
Gd       0.00000000       0.00000000       3.64848485       0.00000000       0.00000000      -0.54446739
2
Properties=species:S:1:pos:R:3:forces:R:3 energy=-21.681832881304153 pbc="F F F"
Gd       0.00000000       0.00000000       0.00000000       0.00000000       0.00000000       0.52575094
Gd       0.00000000       0.00000000       3.70727273       0.00000000       0.00000000      -0.52575094
2
Properties=species:S:1:pos:R:3:forces:R:3 energy=-21.651668041111392 pbc="F F F"
Gd       0.00000000       0.00000000       0.00000000       0.00000000       0.00000000       0.49976909
Gd       0.00000000       0.00000000       3.76606061       0.00000000       0.00000000      -0.49976909
2
Properties=species:S:1:pos:R:3:forces:R:3 energy=-21.623086835413638 pbc="F F F"
Gd       0.00000000       0.00000000       0.00000000       0.00000000       0.00000000       0.47302866
Gd       0.00000000       0.00000000       3.82484848       0.00000000       0.00000000      -0.47302866
2
Properties=species:S:1:pos:R:3:forces:R:3 energy=-21.59595699223227 pbc="F F F"
Gd       0.00000000       0.00000000       0.00000000       0.00000000       0.00000000       0.45114377
Gd       0.00000000       0.00000000       3.88363636       0.00000000       0.00000000      -0.45114377
2
Properties=species:S:1:pos:R:3:forces:R:3 energy=-21.569864116717774 pbc="F F F"
Gd       0.00000000       0.00000000       0.00000000       0.00000000       0.00000000       0.43825087
Gd       0.00000000       0.00000000       3.94242424       0.00000000       0.00000000      -0.43825087
2
Properties=species:S:1:pos:R:3:forces:R:3 energy=-21.544212748949036 pbc="F F F"
Gd       0.00000000       0.00000000       0.00000000       0.00000000       0.00000000       0.43632165
Gd       0.00000000       0.00000000       4.00121212       0.00000000       0.00000000      -0.43632165
2
Properties=species:S:1:pos:R:3:forces:R:3 energy=-21.518356133332485 pbc="F F F"
Gd       0.00000000       0.00000000       0.00000000       0.00000000       0.00000000       0.44488004
Gd       0.00000000       0.00000000       4.06000000       0.00000000       0.00000000      -0.44488004
2
Properties=species:S:1:pos:R:3:forces:R:3 energy=-21.49174889519172 pbc="F F F"
Gd       0.00000000       0.00000000       0.00000000       0.00000000       0.00000000       0.46136916
Gd       0.00000000       0.00000000       4.11878788       0.00000000       0.00000000      -0.46136916
2
Properties=species:S:1:pos:R:3:forces:R:3 energy=-21.464029056758733 pbc="F F F"
Gd       0.00000000       0.00000000       0.00000000       0.00000000       0.00000000       0.48202321
Gd       0.00000000       0.00000000       4.17757576       0.00000000       0.00000000      -0.48202321
2
Properties=species:S:1:pos:R:3:forces:R:3 energy=-21.435069579936492 pbc="F F F"
Gd       0.00000000       0.00000000       0.00000000       0.00000000       0.00000000       0.50289792
Gd       0.00000000       0.00000000       4.23636364       0.00000000       0.00000000      -0.50289792
2
Properties=species:S:1:pos:R:3:forces:R:3 energy=-21.40496128886028 pbc="F F F"
Gd       0.00000000       0.00000000       0.00000000       0.00000000       0.00000000       0.52069128
Gd       0.00000000       0.00000000       4.29515152       0.00000000       0.00000000      -0.52069128
2
Properties=species:S:1:pos:R:3:forces:R:3 energy=-21.373953837124738 pbc="F F F"
Gd       0.00000000       0.00000000       0.00000000       0.00000000       0.00000000       0.53320247
Gd       0.00000000       0.00000000       4.35393939       0.00000000       0.00000000      -0.53320247
2
Properties=species:S:1:pos:R:3:forces:R:3 energy=-21.342394571257294 pbc="F F F"
Gd       0.00000000       0.00000000       0.00000000       0.00000000       0.00000000       0.53944278
Gd       0.00000000       0.00000000       4.41272727       0.00000000       0.00000000      -0.53944278
2
Properties=species:S:1:pos:R:3:forces:R:3 energy=-21.31065046880841 pbc="F F F"
Gd       0.00000000       0.00000000       0.00000000       0.00000000       0.00000000       0.53953195
Gd       0.00000000       0.00000000       4.47151515       0.00000000       0.00000000      -0.53953195
2
Properties=species:S:1:pos:R:3:forces:R:3 energy=-21.279058616979206 pbc="F F F"
Gd       0.00000000       0.00000000       0.00000000       0.00000000       0.00000000       0.53444648
Gd       0.00000000       0.00000000       4.53030303       0.00000000       0.00000000      -0.53444648
2
Properties=species:S:1:pos:R:3:forces:R:3 energy=-21.247884155916875 pbc="F F F"
Gd       0.00000000       0.00000000       0.00000000       0.00000000       0.00000000       0.52571666
Gd       0.00000000       0.00000000       4.58909091       0.00000000       0.00000000      -0.52571666
2
Properties=species:S:1:pos:R:3:forces:R:3 energy=-21.217286060480895 pbc="F F F"
Gd       0.00000000       0.00000000       0.00000000       0.00000000       0.00000000       0.51508307
Gd       0.00000000       0.00000000       4.64787879       0.00000000       0.00000000      -0.51508307
2
Properties=species:S:1:pos:R:3:forces:R:3 energy=-21.18732664530796 pbc="F F F"
Gd       0.00000000       0.00000000       0.00000000       0.00000000       0.00000000       0.50415313
Gd       0.00000000       0.00000000       4.70666667       0.00000000       0.00000000      -0.50415313
2
Properties=species:S:1:pos:R:3:forces:R:3 energy=-21.157990625627033 pbc="F F F"
Gd       0.00000000       0.00000000       0.00000000       0.00000000       0.00000000       0.49410304
Gd       0.00000000       0.00000000       4.76545455       0.00000000       0.00000000      -0.49410304
2
Properties=species:S:1:pos:R:3:forces:R:3 energy=-21.129204165403085 pbc="F F F"
Gd       0.00000000       0.00000000       0.00000000       0.00000000       0.00000000       0.48545781
Gd       0.00000000       0.00000000       4.82424242       0.00000000       0.00000000      -0.48545781
2
Properties=species:S:1:pos:R:3:forces:R:3 energy=-21.100892104131738 pbc="F F F"
Gd       0.00000000       0.00000000       0.00000000       0.00000000       0.00000000       0.47797966
Gd       0.00000000       0.00000000       4.88303030       0.00000000       0.00000000      -0.47797966
2
Properties=species:S:1:pos:R:3:forces:R:3 energy=-21.073000686631737 pbc="F F F"
Gd       0.00000000       0.00000000       0.00000000       0.00000000       0.00000000       0.47073472
Gd       0.00000000       0.00000000       4.94181818       0.00000000       0.00000000      -0.47073472
2
Properties=species:S:1:pos:R:3:forces:R:3 energy=-21.045566252938315 pbc="F F F"
Gd       0.00000000       0.00000000       0.00000000       0.00000000       0.00000000       0.46226761
Gd       0.00000000       0.00000000       5.00060606       0.00000000       0.00000000      -0.46226761
2
Properties=species:S:1:pos:R:3:forces:R:3 energy=-21.018703756197525 pbc="F F F"
Gd       0.00000000       0.00000000       0.00000000       0.00000000       0.00000000       0.45094794
Gd       0.00000000       0.00000000       5.05939394       0.00000000       0.00000000      -0.45094794
2
Properties=species:S:1:pos:R:3:forces:R:3 energy=-20.99262944810923 pbc="F F F"
Gd       0.00000000       0.00000000       0.00000000       0.00000000       0.00000000       0.43532324
Gd       0.00000000       0.00000000       5.11818182       0.00000000       0.00000000      -0.43532324
2
Properties=species:S:1:pos:R:3:forces:R:3 energy=-20.967624632967418 pbc="F F F"
Gd       0.00000000       0.00000000       0.00000000       0.00000000       0.00000000       0.41447562
Gd       0.00000000       0.00000000       5.17696970       0.00000000       0.00000000      -0.41447562
2
Properties=species:S:1:pos:R:3:forces:R:3 energy=-20.94400693071784 pbc="F F F"
Gd       0.00000000       0.00000000       0.00000000       0.00000000       0.00000000       0.38815549
Gd       0.00000000       0.00000000       5.23575758       0.00000000       0.00000000      -0.38815549
2
Properties=species:S:1:pos:R:3:forces:R:3 energy=-20.92208825193163 pbc="F F F"
Gd       0.00000000       0.00000000       0.00000000       0.00000000       0.00000000       0.35682154
Gd       0.00000000       0.00000000       5.29454545       0.00000000       0.00000000      -0.35682154
2
Properties=species:S:1:pos:R:3:forces:R:3 energy=-20.90213082741645 pbc="F F F"
Gd       0.00000000       0.00000000       0.00000000       0.00000000       0.00000000       0.32152712
Gd       0.00000000       0.00000000       5.35333333       0.00000000       0.00000000      -0.32152712
2
Properties=species:S:1:pos:R:3:forces:R:3 energy=-20.884331816378896 pbc="F F F"
Gd       0.00000000       0.00000000       0.00000000       0.00000000       0.00000000       0.28366661
Gd       0.00000000       0.00000000       5.41212121       0.00000000       0.00000000      -0.28366661
2
Properties=species:S:1:pos:R:3:forces:R:3 energy=-20.868798491885347 pbc="F F F"
Gd       0.00000000       0.00000000       0.00000000       0.00000000       0.00000000       0.24479015
Gd       0.00000000       0.00000000       5.47090909       0.00000000       0.00000000      -0.24479015
2
Properties=species:S:1:pos:R:3:forces:R:3 energy=-20.855540513264923 pbc="F F F"
Gd       0.00000000       0.00000000       0.00000000       0.00000000       0.00000000       0.20636888
Gd       0.00000000       0.00000000       5.52969697       0.00000000       0.00000000      -0.20636888
2
Properties=species:S:1:pos:R:3:forces:R:3 energy=-20.844500332813865 pbc="F F F"
Gd       0.00000000       0.00000000       0.00000000       0.00000000       0.00000000       0.16967271
Gd       0.00000000       0.00000000       5.58848485       0.00000000       0.00000000      -0.16967271
2
Properties=species:S:1:pos:R:3:forces:R:3 energy=-20.83553803837676 pbc="F F F"
Gd       0.00000000       0.00000000       0.00000000       0.00000000       0.00000000       0.13575871
Gd       0.00000000       0.00000000       5.64727273       0.00000000       0.00000000      -0.13575871
2
Properties=species:S:1:pos:R:3:forces:R:3 energy=-20.828469265900363 pbc="F F F"
Gd       0.00000000       0.00000000       0.00000000       0.00000000       0.00000000       0.10541354
Gd       0.00000000       0.00000000       5.70606061       0.00000000       0.00000000      -0.10541354
2
Properties=species:S:1:pos:R:3:forces:R:3 energy=-20.823055754557284 pbc="F F F"
Gd       0.00000000       0.00000000       0.00000000       0.00000000       0.00000000       0.07926974
Gd       0.00000000       0.00000000       5.76484848       0.00000000       0.00000000      -0.07926974
2
Properties=species:S:1:pos:R:3:forces:R:3 energy=-20.81905307164348 pbc="F F F"
Gd       0.00000000       0.00000000       0.00000000       0.00000000       0.00000000       0.05788937
Gd       0.00000000       0.00000000       5.82363636       0.00000000       0.00000000      -0.05788937
2
Properties=species:S:1:pos:R:3:forces:R:3 energy=-20.816153230560367 pbc="F F F"
Gd       0.00000000       0.00000000       0.00000000       0.00000000       0.00000000       0.04172957
Gd       0.00000000       0.00000000       5.88242424       0.00000000       0.00000000      -0.04172957
2
Properties=species:S:1:pos:R:3:forces:R:3 energy=-20.8140344054243 pbc="F F F"
Gd       0.00000000       0.00000000       0.00000000       0.00000000       0.00000000       0.03130443
Gd       0.00000000       0.00000000       5.94121212       0.00000000       0.00000000      -0.03130443
2
Properties=species:S:1:pos:R:3:forces:R:3 energy=-20.812349493310457 pbc="F F F"
Gd       0.00000000       0.00000000       0.00000000       0.00000000       0.00000000       0.02710294
Gd       0.00000000       0.00000000       6.00000000       0.00000000       0.00000000      -0.02710294
