2
Properties=species:S:1:pos:R:3:forces:R:3 energy=92.08722341520914 pbc="F F F"
H        0.00000000       0.00000000       0.00000000       0.00000000       0.00000000    -821.72149658
H        0.00000000       0.00000000       0.10000000       0.00000000       0.00000000     821.72149658
2
Properties=species:S:1:pos:R:3:forces:R:3 energy=63.41662252409585 pbc="F F F"
H        0.00000000       0.00000000       0.00000000       0.00000000       0.00000000    -454.77651978
H        0.00000000       0.00000000       0.15959596       0.00000000       0.00000000     454.77651978
2
Properties=species:S:1:pos:R:3:forces:R:3 energy=29.054937725099506 pbc="F F F"
H        0.00000000       0.00000000       0.00000000       0.00000000       0.00000000    -564.15240479
H        0.00000000       0.00000000       0.21919192       0.00000000       0.00000000     564.15240479
2
Properties=species:S:1:pos:R:3:forces:R:3 energy=9.03304231726109 pbc="F F F"
H        0.00000000       0.00000000       0.00000000       0.00000000       0.00000000    -187.83981323
H        0.00000000       0.00000000       0.27878788       0.00000000       0.00000000     187.83981323
2
Properties=species:S:1:pos:R:3:forces:R:3 energy=1.724708445690188 pbc="F F F"
H        0.00000000       0.00000000       0.00000000       0.00000000       0.00000000     -73.43041992
H        0.00000000       0.00000000       0.33838384       0.00000000       0.00000000      73.43041992
2
Properties=species:S:1:pos:R:3:forces:R:3 energy=-1.442678319608503 pbc="F F F"
H        0.00000000       0.00000000       0.00000000       0.00000000       0.00000000     -41.94686508
H        0.00000000       0.00000000       0.39797980       0.00000000       0.00000000      41.94686508
2
Properties=species:S:1:pos:R:3:forces:R:3 energy=-3.635294056764863 pbc="F F F"
H        0.00000000       0.00000000       0.00000000       0.00000000       0.00000000     -30.17131233
H        0.00000000       0.00000000       0.45757576       0.00000000       0.00000000      30.17131233
2
Properties=species:S:1:pos:R:3:forces:R:3 energy=-5.1022010716449415 pbc="F F F"
H        0.00000000       0.00000000       0.00000000       0.00000000       0.00000000     -19.92628670
H        0.00000000       0.00000000       0.51717172       0.00000000       0.00000000      19.92628670
2
Properties=species:S:1:pos:R:3:forces:R:3 energy=-6.018324106372724 pbc="F F F"
H        0.00000000       0.00000000       0.00000000       0.00000000       0.00000000     -11.11646557
H        0.00000000       0.00000000       0.57676768       0.00000000       0.00000000      11.11646557
2
Properties=species:S:1:pos:R:3:forces:R:3 energy=-6.50806725709059 pbc="F F F"
H        0.00000000       0.00000000       0.00000000       0.00000000       0.00000000      -6.04814196
H        0.00000000       0.00000000       0.63636364       0.00000000       0.00000000       6.04814196
2
Properties=species:S:1:pos:R:3:forces:R:3 energy=-6.774116388998945 pbc="F F F"
H        0.00000000       0.00000000       0.00000000       0.00000000       0.00000000      -2.93639374
H        0.00000000       0.00000000       0.69595960       0.00000000       0.00000000       2.93639374
2
Properties=species:S:1:pos:R:3:forces:R:3 energy=-6.862985580149793 pbc="F F F"
H        0.00000000       0.00000000       0.00000000       0.00000000       0.00000000      -0.12497059
H        0.00000000       0.00000000       0.75555556       0.00000000       0.00000000       0.12497059
2
Properties=species:S:1:pos:R:3:forces:R:3 energy=-6.799082052115083 pbc="F F F"
H        0.00000000       0.00000000       0.00000000       0.00000000       0.00000000       2.22285342
H        0.00000000       0.00000000       0.81515152       0.00000000       0.00000000      -2.22285342
2
Properties=species:S:1:pos:R:3:forces:R:3 energy=-6.596061907165457 pbc="F F F"
H        0.00000000       0.00000000       0.00000000       0.00000000       0.00000000       4.65563059
H        0.00000000       0.00000000       0.87474747       0.00000000       0.00000000      -4.65563059
2
Properties=species:S:1:pos:R:3:forces:R:3 energy=-6.240212228966535 pbc="F F F"
H        0.00000000       0.00000000       0.00000000       0.00000000       0.00000000       7.22763252
H        0.00000000       0.00000000       0.93434343       0.00000000       0.00000000      -7.22763252
2
Properties=species:S:1:pos:R:3:forces:R:3 energy=-5.754797387807506 pbc="F F F"
H        0.00000000       0.00000000       0.00000000       0.00000000       0.00000000       8.81435680
H        0.00000000       0.00000000       0.99393939       0.00000000       0.00000000      -8.81435680
2
Properties=species:S:1:pos:R:3:forces:R:3 energy=-5.21943921722199 pbc="F F F"
H        0.00000000       0.00000000       0.00000000       0.00000000       0.00000000       8.94291115
H        0.00000000       0.00000000       1.05353535       0.00000000       0.00000000      -8.94291115
2
Properties=species:S:1:pos:R:3:forces:R:3 energy=-4.705706056051997 pbc="F F F"
H        0.00000000       0.00000000       0.00000000       0.00000000       0.00000000       8.21899033
H        0.00000000       0.00000000       1.11313131       0.00000000       0.00000000      -8.21899033
2
Properties=species:S:1:pos:R:3:forces:R:3 energy=-4.244411004988445 pbc="F F F"
H        0.00000000       0.00000000       0.00000000       0.00000000       0.00000000       7.24763346
H        0.00000000       0.00000000       1.17272727       0.00000000       0.00000000      -7.24763346
2
Properties=species:S:1:pos:R:3:forces:R:3 energy=-3.8425026830618783 pbc="F F F"
H        0.00000000       0.00000000       0.00000000       0.00000000       0.00000000       6.23803520
H        0.00000000       0.00000000       1.23232323       0.00000000       0.00000000      -6.23803520
2
Properties=species:S:1:pos:R:3:forces:R:3 energy=-3.500909488056083 pbc="F F F"
H        0.00000000       0.00000000       0.00000000       0.00000000       0.00000000       5.22759914
H        0.00000000       0.00000000       1.29191919       0.00000000       0.00000000      -5.22759914
2
Properties=species:S:1:pos:R:3:forces:R:3 energy=-3.2187360431332053 pbc="F F F"
H        0.00000000       0.00000000       0.00000000       0.00000000       0.00000000       4.25208521
H        0.00000000       0.00000000       1.35151515       0.00000000       0.00000000      -4.25208521
2
Properties=species:S:1:pos:R:3:forces:R:3 energy=-2.9923914372944505 pbc="F F F"
H        0.00000000       0.00000000       0.00000000       0.00000000       0.00000000       3.36189580
H        0.00000000       0.00000000       1.41111111       0.00000000       0.00000000      -3.36189580
2
Properties=species:S:1:pos:R:3:forces:R:3 energy=-2.815546616482678 pbc="F F F"
H        0.00000000       0.00000000       0.00000000       0.00000000       0.00000000       2.59558177
H        0.00000000       0.00000000       1.47070707       0.00000000       0.00000000      -2.59558177
2
Properties=species:S:1:pos:R:3:forces:R:3 energy=-2.6802658424870986 pbc="F F F"
H        0.00000000       0.00000000       0.00000000       0.00000000       0.00000000       1.96735120
H        0.00000000       0.00000000       1.53030303       0.00000000       0.00000000      -1.96735120
2
Properties=species:S:1:pos:R:3:forces:R:3 energy=-2.5784253828793493 pbc="F F F"
H        0.00000000       0.00000000       0.00000000       0.00000000       0.00000000       1.47107279
H        0.00000000       0.00000000       1.58989899       0.00000000       0.00000000      -1.47107279
2
Properties=species:S:1:pos:R:3:forces:R:3 energy=-2.502647903915281 pbc="F F F"
H        0.00000000       0.00000000       0.00000000       0.00000000       0.00000000       1.08934247
H        0.00000000       0.00000000       1.64949495       0.00000000       0.00000000      -1.08934247
2
Properties=species:S:1:pos:R:3:forces:R:3 energy=-2.446727362141249 pbc="F F F"
H        0.00000000       0.00000000       0.00000000       0.00000000       0.00000000       0.80110478
H        0.00000000       0.00000000       1.70909091       0.00000000       0.00000000      -0.80110478
2
Properties=species:S:1:pos:R:3:forces:R:3 energy=-2.4057072064800162 pbc="F F F"
H        0.00000000       0.00000000       0.00000000       0.00000000       0.00000000       0.58620948
H        0.00000000       0.00000000       1.76868687       0.00000000       0.00000000      -0.58620948
2
Properties=species:S:1:pos:R:3:forces:R:3 energy=-2.375745212715399 pbc="F F F"
H        0.00000000       0.00000000       0.00000000       0.00000000       0.00000000       0.42735311
H        0.00000000       0.00000000       1.82828283       0.00000000       0.00000000      -0.42735311
2
Properties=species:S:1:pos:R:3:forces:R:3 energy=-2.353935393129213 pbc="F F F"
H        0.00000000       0.00000000       0.00000000       0.00000000       0.00000000       0.31061006
H        0.00000000       0.00000000       1.88787879       0.00000000       0.00000000      -0.31061006
2
Properties=species:S:1:pos:R:3:forces:R:3 energy=-2.338103212364848 pbc="F F F"
H        0.00000000       0.00000000       0.00000000       0.00000000       0.00000000       0.22517040
H        0.00000000       0.00000000       1.94747475       0.00000000       0.00000000      -0.22517040
2
Properties=species:S:1:pos:R:3:forces:R:3 energy=-2.326638696401784 pbc="F F F"
H        0.00000000       0.00000000       0.00000000       0.00000000       0.00000000       0.16285859
H        0.00000000       0.00000000       2.00707071       0.00000000       0.00000000      -0.16285859
2
Properties=species:S:1:pos:R:3:forces:R:3 energy=-2.3183545857763357 pbc="F F F"
H        0.00000000       0.00000000       0.00000000       0.00000000       0.00000000       0.11757714
H        0.00000000       0.00000000       2.06666667       0.00000000       0.00000000      -0.11757714
2
Properties=species:S:1:pos:R:3:forces:R:3 energy=-2.312376462630555 pbc="F F F"
H        0.00000000       0.00000000       0.00000000       0.00000000       0.00000000       0.08482241
H        0.00000000       0.00000000       2.12626263       0.00000000       0.00000000      -0.08482241
2
Properties=species:S:1:pos:R:3:forces:R:3 energy=-2.3080616994827134 pbc="F F F"
H        0.00000000       0.00000000       0.00000000       0.00000000       0.00000000       0.06128824
H        0.00000000       0.00000000       2.18585859       0.00000000       0.00000000      -0.06128824
2
Properties=species:S:1:pos:R:3:forces:R:3 energy=-2.304936536125327 pbc="F F F"
H        0.00000000       0.00000000       0.00000000       0.00000000       0.00000000       0.04455812
H        0.00000000       0.00000000       2.24545455       0.00000000       0.00000000      -0.04455812
2
Properties=species:S:1:pos:R:3:forces:R:3 energy=-2.302651056527576 pbc="F F F"
H        0.00000000       0.00000000       0.00000000       0.00000000       0.00000000       0.03285840
H        0.00000000       0.00000000       2.30505051       0.00000000       0.00000000      -0.03285840
2
Properties=species:S:1:pos:R:3:forces:R:3 energy=-2.3009460636999624 pbc="F F F"
H        0.00000000       0.00000000       0.00000000       0.00000000       0.00000000       0.02489257
H        0.00000000       0.00000000       2.36464646       0.00000000       0.00000000      -0.02489257
2
Properties=species:S:1:pos:R:3:forces:R:3 energy=-2.2996290421834202 pbc="F F F"
H        0.00000000       0.00000000       0.00000000       0.00000000       0.00000000       0.01970951
H        0.00000000       0.00000000       2.42424242       0.00000000       0.00000000      -0.01970951
2
Properties=species:S:1:pos:R:3:forces:R:3 energy=-2.298555805758393 pbc="F F F"
H        0.00000000       0.00000000       0.00000000       0.00000000       0.00000000       0.01660547
H        0.00000000       0.00000000       2.48383838       0.00000000       0.00000000      -0.01660547
2
Properties=species:S:1:pos:R:3:forces:R:3 energy=-2.297618852552341 pbc="F F F"
H        0.00000000       0.00000000       0.00000000       0.00000000       0.00000000       0.01506138
H        0.00000000       0.00000000       2.54343434       0.00000000       0.00000000      -0.01506138
2
Properties=species:S:1:pos:R:3:forces:R:3 energy=-2.296737348687581 pbc="F F F"
H        0.00000000       0.00000000       0.00000000       0.00000000       0.00000000       0.01469129
H        0.00000000       0.00000000       2.60303030       0.00000000       0.00000000      -0.01469129
2
Properties=species:S:1:pos:R:3:forces:R:3 energy=-2.2958502493845088 pbc="F F F"
H        0.00000000       0.00000000       0.00000000       0.00000000       0.00000000       0.01521001
H        0.00000000       0.00000000       2.66262626       0.00000000       0.00000000      -0.01521001
2
Properties=species:S:1:pos:R:3:forces:R:3 energy=-2.294910769796838 pbc="F F F"
H        0.00000000       0.00000000       0.00000000       0.00000000       0.00000000       0.01640563
H        0.00000000       0.00000000       2.72222222       0.00000000       0.00000000      -0.01640563
2
Properties=species:S:1:pos:R:3:forces:R:3 energy=-2.2938845069653238 pbc="F F F"
H        0.00000000       0.00000000       0.00000000       0.00000000       0.00000000       0.01812054
H        0.00000000       0.00000000       2.78181818       0.00000000       0.00000000      -0.01812054
2
Properties=species:S:1:pos:R:3:forces:R:3 energy=-2.2927431783702157 pbc="F F F"
H        0.00000000       0.00000000       0.00000000       0.00000000       0.00000000       0.02023461
H        0.00000000       0.00000000       2.84141414       0.00000000       0.00000000      -0.02023461
2
Properties=species:S:1:pos:R:3:forces:R:3 energy=-2.291466511064916 pbc="F F F"
H        0.00000000       0.00000000       0.00000000       0.00000000       0.00000000       0.02264822
H        0.00000000       0.00000000       2.90101010       0.00000000       0.00000000      -0.02264822
2
Properties=species:S:1:pos:R:3:forces:R:3 energy=-2.290039793341788 pbc="F F F"
H        0.00000000       0.00000000       0.00000000       0.00000000       0.00000000       0.02526636
H        0.00000000       0.00000000       2.96060606       0.00000000       0.00000000      -0.02526636
2
Properties=species:S:1:pos:R:3:forces:R:3 energy=-2.2884531287881433 pbc="F F F"
H        0.00000000       0.00000000       0.00000000       0.00000000       0.00000000       0.02798282
H        0.00000000       0.00000000       3.02020202       0.00000000       0.00000000      -0.02798282
2
Properties=species:S:1:pos:R:3:forces:R:3 energy=-2.2867049399030064 pbc="F F F"
H        0.00000000       0.00000000       0.00000000       0.00000000       0.00000000       0.03066827
H        0.00000000       0.00000000       3.07979798       0.00000000       0.00000000      -0.03066827
2
Properties=species:S:1:pos:R:3:forces:R:3 energy=-2.2848014482963697 pbc="F F F"
H        0.00000000       0.00000000       0.00000000       0.00000000       0.00000000       0.03316316
H        0.00000000       0.00000000       3.13939394       0.00000000       0.00000000      -0.03316316
2
Properties=species:S:1:pos:R:3:forces:R:3 energy=-2.2827597317611006 pbc="F F F"
H        0.00000000       0.00000000       0.00000000       0.00000000       0.00000000       0.03527734
H        0.00000000       0.00000000       3.19898990       0.00000000       0.00000000      -0.03527734
2
Properties=species:S:1:pos:R:3:forces:R:3 energy=-2.280608390031457 pbc="F F F"
H        0.00000000       0.00000000       0.00000000       0.00000000       0.00000000       0.03680028
H        0.00000000       0.00000000       3.25858586       0.00000000       0.00000000      -0.03680028
2
Properties=species:S:1:pos:R:3:forces:R:3 energy=-2.2783894501518307 pbc="F F F"
H        0.00000000       0.00000000       0.00000000       0.00000000       0.00000000       0.03752084
H        0.00000000       0.00000000       3.31818182       0.00000000       0.00000000      -0.03752084
2
Properties=species:S:1:pos:R:3:forces:R:3 energy=-2.2761561858634947 pbc="F F F"
H        0.00000000       0.00000000       0.00000000       0.00000000       0.00000000       0.03725412
H        0.00000000       0.00000000       3.37777778       0.00000000       0.00000000      -0.03725412
2
Properties=species:S:1:pos:R:3:forces:R:3 energy=-2.2739709851026433 pbc="F F F"
H        0.00000000       0.00000000       0.00000000       0.00000000       0.00000000       0.03587926
H        0.00000000       0.00000000       3.43737374       0.00000000       0.00000000      -0.03587926
2
Properties=species:S:1:pos:R:3:forces:R:3 energy=-2.2719020079825194 pbc="F F F"
H        0.00000000       0.00000000       0.00000000       0.00000000       0.00000000       0.03337513
H        0.00000000       0.00000000       3.49696970       0.00000000       0.00000000      -0.03337513
2
Properties=species:S:1:pos:R:3:forces:R:3 energy=-2.2700134344003935 pbc="F F F"
H        0.00000000       0.00000000       0.00000000       0.00000000       0.00000000       0.02985570
H        0.00000000       0.00000000       3.55656566       0.00000000       0.00000000      -0.02985570
2
Properties=species:S:1:pos:R:3:forces:R:3 energy=-2.268358564549947 pbc="F F F"
H        0.00000000       0.00000000       0.00000000       0.00000000       0.00000000       0.02558427
H        0.00000000       0.00000000       3.61616162       0.00000000       0.00000000      -0.02558427
2
Properties=species:S:1:pos:R:3:forces:R:3 energy=-2.266970775646331 pbc="F F F"
H        0.00000000       0.00000000       0.00000000       0.00000000       0.00000000       0.02096490
H        0.00000000       0.00000000       3.67575758       0.00000000       0.00000000      -0.02096490
2
Properties=species:S:1:pos:R:3:forces:R:3 energy=-2.2658566358028027 pbc="F F F"
H        0.00000000       0.00000000       0.00000000       0.00000000       0.00000000       0.01649560
H        0.00000000       0.00000000       3.73535354       0.00000000       0.00000000      -0.01649560
2
Properties=species:S:1:pos:R:3:forces:R:3 energy=-2.264991632196192 pbc="F F F"
H        0.00000000       0.00000000       0.00000000       0.00000000       0.00000000       0.01268278
H        0.00000000       0.00000000       3.79494949       0.00000000       0.00000000      -0.01268278
2
Properties=species:S:1:pos:R:3:forces:R:3 energy=-2.2643237662535296 pbc="F F F"
H        0.00000000       0.00000000       0.00000000       0.00000000       0.00000000       0.00993110
H        0.00000000       0.00000000       3.85454545       0.00000000       0.00000000      -0.00993110
2
Properties=species:S:1:pos:R:3:forces:R:3 energy=-2.2637828699936176 pbc="F F F"
H        0.00000000       0.00000000       0.00000000       0.00000000       0.00000000       0.00843622
H        0.00000000       0.00000000       3.91414141       0.00000000       0.00000000      -0.00843622
2
Properties=species:S:1:pos:R:3:forces:R:3 energy=-2.263294449351775 pbc="F F F"
H        0.00000000       0.00000000       0.00000000       0.00000000       0.00000000       0.00812937
H        0.00000000       0.00000000       3.97373737       0.00000000       0.00000000      -0.00812937
2
Properties=species:S:1:pos:R:3:forces:R:3 energy=-2.262796388428534 pbc="F F F"
H        0.00000000       0.00000000       0.00000000       0.00000000       0.00000000       0.00870314
H        0.00000000       0.00000000       4.03333333       0.00000000       0.00000000      -0.00870314
2
Properties=species:S:1:pos:R:3:forces:R:3 energy=-2.2622477791936064 pbc="F F F"
H        0.00000000       0.00000000       0.00000000       0.00000000       0.00000000       0.00974626
H        0.00000000       0.00000000       4.09292929       0.00000000       0.00000000      -0.00974626
2
Properties=species:S:1:pos:R:3:forces:R:3 energy=-2.2616320311238387 pbc="F F F"
H        0.00000000       0.00000000       0.00000000       0.00000000       0.00000000       0.01093027
H        0.00000000       0.00000000       4.15252525       0.00000000       0.00000000      -0.01093027
2
Properties=species:S:1:pos:R:3:forces:R:3 energy=-2.2609440029355854 pbc="F F F"
H        0.00000000       0.00000000       0.00000000       0.00000000       0.00000000       0.01217106
H        0.00000000       0.00000000       4.21212121       0.00000000       0.00000000      -0.01217106
2
Properties=species:S:1:pos:R:3:forces:R:3 energy=-2.2601764163884948 pbc="F F F"
H        0.00000000       0.00000000       0.00000000       0.00000000       0.00000000       0.01366006
H        0.00000000       0.00000000       4.27171717       0.00000000       0.00000000      -0.01366006
2
Properties=species:S:1:pos:R:3:forces:R:3 energy=-2.2593043651165265 pbc="F F F"
H        0.00000000       0.00000000       0.00000000       0.00000000       0.00000000       0.01573466
H        0.00000000       0.00000000       4.33131313       0.00000000       0.00000000      -0.01573466
2
Properties=species:S:1:pos:R:3:forces:R:3 energy=-2.258284123079529 pbc="F F F"
H        0.00000000       0.00000000       0.00000000       0.00000000       0.00000000       0.01865344
H        0.00000000       0.00000000       4.39090909       0.00000000       0.00000000      -0.01865344
2
Properties=species:S:1:pos:R:3:forces:R:3 energy=-2.2570641148372057 pbc="F F F"
H        0.00000000       0.00000000       0.00000000       0.00000000       0.00000000       0.02240587
H        0.00000000       0.00000000       4.45050505       0.00000000       0.00000000      -0.02240587
2
Properties=species:S:1:pos:R:3:forces:R:3 energy=-2.255603273829203 pbc="F F F"
H        0.00000000       0.00000000       0.00000000       0.00000000       0.00000000       0.02666989
H        0.00000000       0.00000000       4.51010101       0.00000000       0.00000000      -0.02666989
2
Properties=species:S:1:pos:R:3:forces:R:3 energy=-2.2538855853639683 pbc="F F F"
H        0.00000000       0.00000000       0.00000000       0.00000000       0.00000000       0.03091263
H        0.00000000       0.00000000       4.56969697       0.00000000       0.00000000      -0.03091263
2
Properties=species:S:1:pos:R:3:forces:R:3 energy=-2.2519305793625986 pbc="F F F"
H        0.00000000       0.00000000       0.00000000       0.00000000       0.00000000       0.03455221
H        0.00000000       0.00000000       4.62929293       0.00000000       0.00000000      -0.03455221
2
Properties=species:S:1:pos:R:3:forces:R:3 energy=-2.2497895129887233 pbc="F F F"
H        0.00000000       0.00000000       0.00000000       0.00000000       0.00000000       0.03707713
H        0.00000000       0.00000000       4.68888889       0.00000000       0.00000000      -0.03707713
2
Properties=species:S:1:pos:R:3:forces:R:3 energy=-2.247541080203023 pbc="F F F"
H        0.00000000       0.00000000       0.00000000       0.00000000       0.00000000       0.03810505
H        0.00000000       0.00000000       4.74848485       0.00000000       0.00000000      -0.03810505
2
Properties=species:S:1:pos:R:3:forces:R:3 energy=-2.2452823484419113 pbc="F F F"
H        0.00000000       0.00000000       0.00000000       0.00000000       0.00000000       0.03740496
H        0.00000000       0.00000000       4.80808081       0.00000000       0.00000000      -0.03740496
2
Properties=species:S:1:pos:R:3:forces:R:3 energy=-2.2431177938377607 pbc="F F F"
H        0.00000000       0.00000000       0.00000000       0.00000000       0.00000000       0.03494155
H        0.00000000       0.00000000       4.86767677       0.00000000       0.00000000      -0.03494155
2
Properties=species:S:1:pos:R:3:forces:R:3 energy=-2.2411488076583455 pbc="F F F"
H        0.00000000       0.00000000       0.00000000       0.00000000       0.00000000       0.03091251
H        0.00000000       0.00000000       4.92727273       0.00000000       0.00000000      -0.03091251
2
Properties=species:S:1:pos:R:3:forces:R:3 energy=-2.239455814294696 pbc="F F F"
H        0.00000000       0.00000000       0.00000000       0.00000000       0.00000000       0.02575757
H        0.00000000       0.00000000       4.98686869       0.00000000       0.00000000      -0.02575757
2
Properties=species:S:1:pos:R:3:forces:R:3 energy=-2.2380889725652846 pbc="F F F"
H        0.00000000       0.00000000       0.00000000       0.00000000       0.00000000       0.02009526
H        0.00000000       0.00000000       5.04646465       0.00000000       0.00000000      -0.02009526
2
Properties=species:S:1:pos:R:3:forces:R:3 energy=-2.237057444825829 pbc="F F F"
H        0.00000000       0.00000000       0.00000000       0.00000000       0.00000000       0.01459493
H        0.00000000       0.00000000       5.10606061       0.00000000       0.00000000      -0.01459493
2
Properties=species:S:1:pos:R:3:forces:R:3 energy=-2.236334404105938 pbc="F F F"
H        0.00000000       0.00000000       0.00000000       0.00000000       0.00000000       0.00983188
H        0.00000000       0.00000000       5.16565657       0.00000000       0.00000000      -0.00983188
2
Properties=species:S:1:pos:R:3:forces:R:3 energy=-2.2358637082949073 pbc="F F F"
H        0.00000000       0.00000000       0.00000000       0.00000000       0.00000000       0.00616354
H        0.00000000       0.00000000       5.22525253       0.00000000       0.00000000      -0.00616354
2
Properties=species:S:1:pos:R:3:forces:R:3 energy=-2.235576111441919 pbc="F F F"
H        0.00000000       0.00000000       0.00000000       0.00000000       0.00000000       0.00367839
H        0.00000000       0.00000000       5.28484848       0.00000000       0.00000000      -0.00367839
2
Properties=species:S:1:pos:R:3:forces:R:3 energy=-2.235404284151269 pbc="F F F"
H        0.00000000       0.00000000       0.00000000       0.00000000       0.00000000       0.00223626
H        0.00000000       0.00000000       5.34444444       0.00000000       0.00000000      -0.00223626
2
Properties=species:S:1:pos:R:3:forces:R:3 energy=-2.2352942563501177 pbc="F F F"
H        0.00000000       0.00000000       0.00000000       0.00000000       0.00000000       0.00155645
H        0.00000000       0.00000000       5.40404040       0.00000000       0.00000000      -0.00155645
2
Properties=species:S:1:pos:R:3:forces:R:3 energy=-2.235209946783639 pbc="F F F"
H        0.00000000       0.00000000       0.00000000       0.00000000       0.00000000       0.00132774
H        0.00000000       0.00000000       5.46363636       0.00000000       0.00000000      -0.00132774
2
Properties=species:S:1:pos:R:3:forces:R:3 energy=-2.2351324471034486 pbc="F F F"
H        0.00000000       0.00000000       0.00000000       0.00000000       0.00000000       0.00128707
H        0.00000000       0.00000000       5.52323232       0.00000000       0.00000000      -0.00128707
2
Properties=species:S:1:pos:R:3:forces:R:3 energy=-2.2350562067372355 pbc="F F F"
H        0.00000000       0.00000000       0.00000000       0.00000000       0.00000000       0.00126313
H        0.00000000       0.00000000       5.58282828       0.00000000       0.00000000      -0.00126313
2
Properties=species:S:1:pos:R:3:forces:R:3 energy=-2.2349833097786744 pbc="F F F"
H        0.00000000       0.00000000       0.00000000       0.00000000       0.00000000       0.00117305
H        0.00000000       0.00000000       5.64242424       0.00000000       0.00000000      -0.00117305
2
Properties=species:S:1:pos:R:3:forces:R:3 energy=-2.2349179916323405 pbc="F F F"
H        0.00000000       0.00000000       0.00000000       0.00000000       0.00000000       0.00100204
H        0.00000000       0.00000000       5.70202020       0.00000000       0.00000000      -0.00100204
2
Properties=species:S:1:pos:R:3:forces:R:3 energy=-2.2348649691308338 pbc="F F F"
H        0.00000000       0.00000000       0.00000000       0.00000000       0.00000000       0.00077448
H        0.00000000       0.00000000       5.76161616       0.00000000       0.00000000      -0.00077448
2
Properties=species:S:1:pos:R:3:forces:R:3 energy=-2.2348261022786953 pbc="F F F"
H        0.00000000       0.00000000       0.00000000       0.00000000       0.00000000       0.00053150
H        0.00000000       0.00000000       5.82121212       0.00000000       0.00000000      -0.00053150
2
Properties=species:S:1:pos:R:3:forces:R:3 energy=-2.2348011094091498 pbc="F F F"
H        0.00000000       0.00000000       0.00000000       0.00000000       0.00000000       0.00031503
H        0.00000000       0.00000000       5.88080808       0.00000000       0.00000000      -0.00031503
2
Properties=species:S:1:pos:R:3:forces:R:3 energy=-2.2347870896787327 pbc="F F F"
H        0.00000000       0.00000000       0.00000000       0.00000000       0.00000000       0.00016169
H        0.00000000       0.00000000       5.94040404       0.00000000       0.00000000      -0.00016169
2
Properties=species:S:1:pos:R:3:forces:R:3 energy=-2.234779953572581 pbc="F F F"
H        0.00000000       0.00000000       0.00000000       0.00000000       0.00000000       0.00010019
H        0.00000000       0.00000000       6.00000000       0.00000000       0.00000000      -0.00010019
