2
Properties=species:S:1:pos:R:3:forces:R:3 energy=60.82791149466256 pbc="F F F"
He       0.00000000       0.00000000       0.00000000       0.00000000       0.00000000    -764.93206787
He       0.00000000       0.00000000       0.18000000       0.00000000       0.00000000     764.93206787
2
Properties=species:S:1:pos:R:3:forces:R:3 energy=29.708927272448435 pbc="F F F"
He       0.00000000       0.00000000       0.00000000       0.00000000       0.00000000    -358.72851562
He       0.00000000       0.00000000       0.23878788       0.00000000       0.00000000     358.72851562
2
Properties=species:S:1:pos:R:3:forces:R:3 energy=14.290153622513323 pbc="F F F"
He       0.00000000       0.00000000       0.00000000       0.00000000       0.00000000    -186.72488403
He       0.00000000       0.00000000       0.29757576       0.00000000       0.00000000     186.72488403
2
Properties=species:S:1:pos:R:3:forces:R:3 energy=6.189884307559219 pbc="F F F"
He       0.00000000       0.00000000       0.00000000       0.00000000       0.00000000     -97.38442230
He       0.00000000       0.00000000       0.35636364       0.00000000       0.00000000      97.38442230
2
Properties=species:S:1:pos:R:3:forces:R:3 energy=2.1256688920202387 pbc="F F F"
He       0.00000000       0.00000000       0.00000000       0.00000000       0.00000000     -45.34872437
He       0.00000000       0.00000000       0.41515152       0.00000000       0.00000000      45.34872437
2
Properties=species:S:1:pos:R:3:forces:R:3 energy=0.4341386769314002 pbc="F F F"
He       0.00000000       0.00000000       0.00000000       0.00000000       0.00000000     -15.22871208
He       0.00000000       0.00000000       0.47393939       0.00000000       0.00000000      15.22871208
2
Properties=species:S:1:pos:R:3:forces:R:3 energy=0.01598798476416987 pbc="F F F"
He       0.00000000       0.00000000       0.00000000       0.00000000       0.00000000      -1.49235380
He       0.00000000       0.00000000       0.53272727       0.00000000       0.00000000       1.49235380
2
Properties=species:S:1:pos:R:3:forces:R:3 energy=0.0017514526876600794 pbc="F F F"
He       0.00000000       0.00000000       0.00000000       0.00000000       0.00000000      -0.01074186
He       0.00000000       0.00000000       0.59151515       0.00000000       0.00000000       0.01074186
2
Properties=species:S:1:pos:R:3:forces:R:3 energy=0.0012894118515621798 pbc="F F F"
He       0.00000000       0.00000000       0.00000000       0.00000000       0.00000000      -0.00587959
He       0.00000000       0.00000000       0.65030303       0.00000000       0.00000000       0.00587959
2
Properties=species:S:1:pos:R:3:forces:R:3 energy=0.0009893459319368144 pbc="F F F"
He       0.00000000       0.00000000       0.00000000       0.00000000       0.00000000      -0.00462276
He       0.00000000       0.00000000       0.70909091       0.00000000       0.00000000       0.00462276
2
Properties=species:S:1:pos:R:3:forces:R:3 energy=0.0007351768861922317 pbc="F F F"
He       0.00000000       0.00000000       0.00000000       0.00000000       0.00000000      -0.00399629
He       0.00000000       0.00000000       0.76787879       0.00000000       0.00000000       0.00399629
2
Properties=species:S:1:pos:R:3:forces:R:3 energy=0.0005269630934201844 pbc="F F F"
He       0.00000000       0.00000000       0.00000000       0.00000000       0.00000000      -0.00301489
He       0.00000000       0.00000000       0.82666667       0.00000000       0.00000000       0.00301489
2
Properties=species:S:1:pos:R:3:forces:R:3 energy=0.0003872074599998068 pbc="F F F"
He       0.00000000       0.00000000       0.00000000       0.00000000       0.00000000      -0.00171809
He       0.00000000       0.00000000       0.88545455       0.00000000       0.00000000       0.00171809
2
Properties=species:S:1:pos:R:3:forces:R:3 energy=0.000321724228597486 pbc="F F F"
He       0.00000000       0.00000000       0.00000000       0.00000000       0.00000000      -0.00058223
He       0.00000000       0.00000000       0.94424242       0.00000000       0.00000000       0.00058223
2
Properties=species:S:1:pos:R:3:forces:R:3 energy=0.0003077443947446482 pbc="F F F"
He       0.00000000       0.00000000       0.00000000       0.00000000       0.00000000       0.00001035
He       0.00000000       0.00000000       1.00303030       0.00000000       0.00000000      -0.00001035
2
Properties=species:S:1:pos:R:3:forces:R:3 energy=0.0003133758029188339 pbc="F F F"
He       0.00000000       0.00000000       0.00000000       0.00000000       0.00000000       0.00011903
He       0.00000000       0.00000000       1.06181818       0.00000000       0.00000000      -0.00011903
2
Properties=species:S:1:pos:R:3:forces:R:3 energy=0.0003165734136823307 pbc="F F F"
He       0.00000000       0.00000000       0.00000000       0.00000000       0.00000000      -0.00003851
He       0.00000000       0.00000000       1.12060606       0.00000000       0.00000000       0.00003851
2
Properties=species:S:1:pos:R:3:forces:R:3 energy=0.0003069151148913636 pbc="F F F"
He       0.00000000       0.00000000       0.00000000       0.00000000       0.00000000      -0.00029695
He       0.00000000       0.00000000       1.17939394       0.00000000       0.00000000       0.00029695
2
Properties=species:S:1:pos:R:3:forces:R:3 energy=0.00028164120912323154 pbc="F F F"
He       0.00000000       0.00000000       0.00000000       0.00000000       0.00000000      -0.00055783
He       0.00000000       0.00000000       1.23818182       0.00000000       0.00000000       0.00055783
2
Properties=species:S:1:pos:R:3:forces:R:3 energy=0.00024230196128106288 pbc="F F F"
He       0.00000000       0.00000000       0.00000000       0.00000000       0.00000000      -0.00077014
He       0.00000000       0.00000000       1.29696970       0.00000000       0.00000000       0.00077014
2
Properties=species:S:1:pos:R:3:forces:R:3 energy=0.00019240794142157797 pbc="F F F"
He       0.00000000       0.00000000       0.00000000       0.00000000       0.00000000      -0.00091591
He       0.00000000       0.00000000       1.35575758       0.00000000       0.00000000       0.00091591
2
Properties=species:S:1:pos:R:3:forces:R:3 energy=0.0001358844086664882 pbc="F F F"
He       0.00000000       0.00000000       0.00000000       0.00000000       0.00000000      -0.00099706
He       0.00000000       0.00000000       1.41454545       0.00000000       0.00000000       0.00099706
2
Properties=species:S:1:pos:R:3:forces:R:3 energy=7.623557113793666e-05 pbc="F F F"
He       0.00000000       0.00000000       0.00000000       0.00000000       0.00000000      -0.00102428
He       0.00000000       0.00000000       1.47333333       0.00000000       0.00000000       0.00102428
2
Properties=species:S:1:pos:R:3:forces:R:3 energy=1.6265835415405373e-05 pbc="F F F"
He       0.00000000       0.00000000       0.00000000       0.00000000       0.00000000      -0.00100995
He       0.00000000       0.00000000       1.53212121       0.00000000       0.00000000       0.00100995
2
Properties=species:S:1:pos:R:3:forces:R:3 energy=-4.190926784491326e-05 pbc="F F F"
He       0.00000000       0.00000000       0.00000000       0.00000000       0.00000000      -0.00096483
He       0.00000000       0.00000000       1.59090909       0.00000000       0.00000000       0.00096483
2
Properties=species:S:1:pos:R:3:forces:R:3 energy=-9.673413140366227e-05 pbc="F F F"
He       0.00000000       0.00000000       0.00000000       0.00000000       0.00000000      -0.00089718
He       0.00000000       0.00000000       1.64969697       0.00000000       0.00000000       0.00089718
2
Properties=species:S:1:pos:R:3:forces:R:3 energy=-0.0001470723372042754 pbc="F F F"
He       0.00000000       0.00000000       0.00000000       0.00000000       0.00000000      -0.00081291
He       0.00000000       0.00000000       1.70848485       0.00000000       0.00000000       0.00081291
2
Properties=species:S:1:pos:R:3:forces:R:3 energy=-0.0001920682164319803 pbc="F F F"
He       0.00000000       0.00000000       0.00000000       0.00000000       0.00000000      -0.00071617
He       0.00000000       0.00000000       1.76727273       0.00000000       0.00000000       0.00071617
2
Properties=species:S:1:pos:R:3:forces:R:3 energy=-0.00023108906243911255 pbc="F F F"
He       0.00000000       0.00000000       0.00000000       0.00000000       0.00000000      -0.00060990
He       0.00000000       0.00000000       1.82606061       0.00000000       0.00000000       0.00060990
2
Properties=species:S:1:pos:R:3:forces:R:3 energy=-0.00026363448523875044 pbc="F F F"
He       0.00000000       0.00000000       0.00000000       0.00000000       0.00000000      -0.00049623
He       0.00000000       0.00000000       1.88484848       0.00000000       0.00000000       0.00049623
2
Properties=species:S:1:pos:R:3:forces:R:3 energy=-0.0002893220371117688 pbc="F F F"
He       0.00000000       0.00000000       0.00000000       0.00000000       0.00000000      -0.00037684
He       0.00000000       0.00000000       1.94363636       0.00000000       0.00000000       0.00037684
2
Properties=species:S:1:pos:R:3:forces:R:3 energy=-0.00030785753471572496 pbc="F F F"
He       0.00000000       0.00000000       0.00000000       0.00000000       0.00000000      -0.00025314
He       0.00000000       0.00000000       2.00242424       0.00000000       0.00000000       0.00025314
2
Properties=species:S:1:pos:R:3:forces:R:3 energy=-0.00031902685470396844 pbc="F F F"
He       0.00000000       0.00000000       0.00000000       0.00000000       0.00000000      -0.00012646
He       0.00000000       0.00000000       2.06121212       0.00000000       0.00000000       0.00012646
2
Properties=species:S:1:pos:R:3:forces:R:3 energy=-0.00032269128678546165 pbc="F F F"
He       0.00000000       0.00000000       0.00000000       0.00000000       0.00000000       0.00000190
He       0.00000000       0.00000000       2.12000000       0.00000000       0.00000000      -0.00000190
2
Properties=species:S:1:pos:R:3:forces:R:3 energy=-0.00031879527271214516 pbc="F F F"
He       0.00000000       0.00000000       0.00000000       0.00000000       0.00000000       0.00013059
He       0.00000000       0.00000000       2.17878788       0.00000000       0.00000000      -0.00013059
2
Properties=species:S:1:pos:R:3:forces:R:3 energy=-0.0003073602110978148 pbc="F F F"
He       0.00000000       0.00000000       0.00000000       0.00000000       0.00000000       0.00025818
He       0.00000000       0.00000000       2.23757576       0.00000000       0.00000000      -0.00025818
2
Properties=species:S:1:pos:R:3:forces:R:3 energy=-0.00028849131734555076 pbc="F F F"
He       0.00000000       0.00000000       0.00000000       0.00000000       0.00000000       0.00038313
He       0.00000000       0.00000000       2.29636364       0.00000000       0.00000000      -0.00038313
2
Properties=species:S:1:pos:R:3:forces:R:3 energy=-0.0002623956483843717 pbc="F F F"
He       0.00000000       0.00000000       0.00000000       0.00000000       0.00000000       0.00050385
He       0.00000000       0.00000000       2.35515152       0.00000000       0.00000000      -0.00050385
2
Properties=species:S:1:pos:R:3:forces:R:3 energy=-0.0002293662251104053 pbc="F F F"
He       0.00000000       0.00000000       0.00000000       0.00000000       0.00000000       0.00061869
He       0.00000000       0.00000000       2.41393939       0.00000000       0.00000000      -0.00061869
2
Properties=species:S:1:pos:R:3:forces:R:3 energy=-0.0001898017613240308 pbc="F F F"
He       0.00000000       0.00000000       0.00000000       0.00000000       0.00000000       0.00072596
He       0.00000000       0.00000000       2.47272727       0.00000000       0.00000000      -0.00072596
2
Properties=species:S:1:pos:R:3:forces:R:3 energy=-0.00014419157564147275 pbc="F F F"
He       0.00000000       0.00000000       0.00000000       0.00000000       0.00000000       0.00082407
He       0.00000000       0.00000000       2.53151515       0.00000000       0.00000000      -0.00082407
2
Properties=species:S:1:pos:R:3:forces:R:3 energy=-9.312127123711224e-05 pbc="F F F"
He       0.00000000       0.00000000       0.00000000       0.00000000       0.00000000       0.00091153
He       0.00000000       0.00000000       2.59030303       0.00000000       0.00000000      -0.00091153
2
Properties=species:S:1:pos:R:3:forces:R:3 energy=-3.7251999541043114e-05 pbc="F F F"
He       0.00000000       0.00000000       0.00000000       0.00000000       0.00000000       0.00098706
He       0.00000000       0.00000000       2.64909091       0.00000000       0.00000000      -0.00098706
2
Properties=species:S:1:pos:R:3:forces:R:3 energy=2.2684101521214424e-05 pbc="F F F"
He       0.00000000       0.00000000       0.00000000       0.00000000       0.00000000       0.00104968
He       0.00000000       0.00000000       2.70787879       0.00000000       0.00000000      -0.00104968
2
Properties=species:S:1:pos:R:3:forces:R:3 energy=8.590212167769538e-05 pbc="F F F"
He       0.00000000       0.00000000       0.00000000       0.00000000       0.00000000       0.00109876
He       0.00000000       0.00000000       2.76666667       0.00000000       0.00000000      -0.00109876
2
Properties=species:S:1:pos:R:3:forces:R:3 energy=0.00015160212562457523 pbc="F F F"
He       0.00000000       0.00000000       0.00000000       0.00000000       0.00000000       0.00113415
He       0.00000000       0.00000000       2.82545455       0.00000000       0.00000000      -0.00113415
2
Properties=species:S:1:pos:R:3:forces:R:3 energy=0.00021898412579539122 pbc="F F F"
He       0.00000000       0.00000000       0.00000000       0.00000000       0.00000000       0.00115614
He       0.00000000       0.00000000       2.88424242       0.00000000       0.00000000      -0.00115614
2
Properties=species:S:1:pos:R:3:forces:R:3 energy=0.00028728853736732546 pbc="F F F"
He       0.00000000       0.00000000       0.00000000       0.00000000       0.00000000       0.00116556
He       0.00000000       0.00000000       2.94303030       0.00000000       0.00000000      -0.00116556
2
Properties=species:S:1:pos:R:3:forces:R:3 energy=0.0003558059894923438 pbc="F F F"
He       0.00000000       0.00000000       0.00000000       0.00000000       0.00000000       0.00116369
He       0.00000000       0.00000000       3.00181818       0.00000000       0.00000000      -0.00116369
2
Properties=species:S:1:pos:R:3:forces:R:3 energy=0.00042392277620932216 pbc="F F F"
He       0.00000000       0.00000000       0.00000000       0.00000000       0.00000000       0.00115225
He       0.00000000       0.00000000       3.06060606       0.00000000       0.00000000      -0.00115225
2
Properties=species:S:1:pos:R:3:forces:R:3 energy=0.0004911342007877388 pbc="F F F"
He       0.00000000       0.00000000       0.00000000       0.00000000       0.00000000       0.00113325
He       0.00000000       0.00000000       3.11939394       0.00000000       0.00000000      -0.00113325
2
Properties=species:S:1:pos:R:3:forces:R:3 energy=0.0005570589202490895 pbc="F F F"
He       0.00000000       0.00000000       0.00000000       0.00000000       0.00000000       0.00110890
He       0.00000000       0.00000000       3.17818182       0.00000000       0.00000000      -0.00110890
2
Properties=species:S:1:pos:R:3:forces:R:3 energy=0.0006214543130177396 pbc="F F F"
He       0.00000000       0.00000000       0.00000000       0.00000000       0.00000000       0.00108143
He       0.00000000       0.00000000       3.23696970       0.00000000       0.00000000      -0.00108143
2
Properties=species:S:1:pos:R:3:forces:R:3 energy=0.0006841909162189721 pbc="F F F"
He       0.00000000       0.00000000       0.00000000       0.00000000       0.00000000       0.00105293
He       0.00000000       0.00000000       3.29575758       0.00000000       0.00000000      -0.00105293
2
Properties=species:S:1:pos:R:3:forces:R:3 energy=0.000745266460778965 pbc="F F F"
He       0.00000000       0.00000000       0.00000000       0.00000000       0.00000000       0.00102524
He       0.00000000       0.00000000       3.35454545       0.00000000       0.00000000      -0.00102524
2
Properties=species:S:1:pos:R:3:forces:R:3 energy=0.0008047781455005732 pbc="F F F"
He       0.00000000       0.00000000       0.00000000       0.00000000       0.00000000       0.00099978
He       0.00000000       0.00000000       3.41333333       0.00000000       0.00000000      -0.00099978
2
Properties=species:S:1:pos:R:3:forces:R:3 energy=0.0008628815969347141 pbc="F F F"
He       0.00000000       0.00000000       0.00000000       0.00000000       0.00000000       0.00097749
He       0.00000000       0.00000000       3.47212121       0.00000000       0.00000000      -0.00097749
2
Properties=species:S:1:pos:R:3:forces:R:3 energy=0.0009197770024102833 pbc="F F F"
He       0.00000000       0.00000000       0.00000000       0.00000000       0.00000000       0.00095876
He       0.00000000       0.00000000       3.53090909       0.00000000       0.00000000      -0.00095876
2
Properties=species:S:1:pos:R:3:forces:R:3 energy=0.0009756755139867766 pbc="F F F"
He       0.00000000       0.00000000       0.00000000       0.00000000       0.00000000       0.00094344
He       0.00000000       0.00000000       3.58969697       0.00000000       0.00000000      -0.00094344
2
Properties=species:S:1:pos:R:3:forces:R:3 energy=0.0010307566957548624 pbc="F F F"
He       0.00000000       0.00000000       0.00000000       0.00000000       0.00000000       0.00093085
He       0.00000000       0.00000000       3.64848485       0.00000000       0.00000000      -0.00093085
2
Properties=species:S:1:pos:R:3:forces:R:3 energy=0.0010851540179647372 pbc="F F F"
He       0.00000000       0.00000000       0.00000000       0.00000000       0.00000000       0.00091995
He       0.00000000       0.00000000       3.70727273       0.00000000       0.00000000      -0.00091995
2
Properties=species:S:1:pos:R:3:forces:R:3 energy=0.0011389313752846561 pbc="F F F"
He       0.00000000       0.00000000       0.00000000       0.00000000       0.00000000       0.00090953
He       0.00000000       0.00000000       3.76606061       0.00000000       0.00000000      -0.00090953
2
Properties=species:S:1:pos:R:3:forces:R:3 energy=0.0011920812793239928 pbc="F F F"
He       0.00000000       0.00000000       0.00000000       0.00000000       0.00000000       0.00089853
He       0.00000000       0.00000000       3.82484848       0.00000000       0.00000000      -0.00089853
2
Properties=species:S:1:pos:R:3:forces:R:3 energy=0.0012445528726964612 pbc="F F F"
He       0.00000000       0.00000000       0.00000000       0.00000000       0.00000000       0.00088633
He       0.00000000       0.00000000       3.88363636       0.00000000       0.00000000      -0.00088633
2
Properties=species:S:1:pos:R:3:forces:R:3 energy=0.0012962716904540551 pbc="F F F"
He       0.00000000       0.00000000       0.00000000       0.00000000       0.00000000       0.00087313
He       0.00000000       0.00000000       3.94242424       0.00000000       0.00000000      -0.00087313
2
Properties=species:S:1:pos:R:3:forces:R:3 energy=0.001347212311544122 pbc="F F F"
He       0.00000000       0.00000000       0.00000000       0.00000000       0.00000000       0.00086008
He       0.00000000       0.00000000       4.00121212       0.00000000       0.00000000      -0.00086008
2
Properties=species:S:1:pos:R:3:forces:R:3 energy=0.0013974417016036278 pbc="F F F"
He       0.00000000       0.00000000       0.00000000       0.00000000       0.00000000       0.00084934
He       0.00000000       0.00000000       4.06000000       0.00000000       0.00000000      -0.00084934
2
Properties=species:S:1:pos:R:3:forces:R:3 energy=0.0014471729111862255 pbc="F F F"
He       0.00000000       0.00000000       0.00000000       0.00000000       0.00000000       0.00084366
He       0.00000000       0.00000000       4.11878788       0.00000000       0.00000000      -0.00084366
2
Properties=species:S:1:pos:R:3:forces:R:3 energy=0.0014967885476908816 pbc="F F F"
He       0.00000000       0.00000000       0.00000000       0.00000000       0.00000000       0.00084572
He       0.00000000       0.00000000       4.17757576       0.00000000       0.00000000      -0.00084572
2
Properties=species:S:1:pos:R:3:forces:R:3 energy=0.0015467923814297538 pbc="F F F"
He       0.00000000       0.00000000       0.00000000       0.00000000       0.00000000       0.00085705
He       0.00000000       0.00000000       4.23636364       0.00000000       0.00000000      -0.00085705
2
Properties=species:S:1:pos:R:3:forces:R:3 energy=0.0015977248359165383 pbc="F F F"
He       0.00000000       0.00000000       0.00000000       0.00000000       0.00000000       0.00087686
He       0.00000000       0.00000000       4.29515152       0.00000000       0.00000000      -0.00087686
2
Properties=species:S:1:pos:R:3:forces:R:3 energy=0.001649979418809089 pbc="F F F"
He       0.00000000       0.00000000       0.00000000       0.00000000       0.00000000       0.00090117
He       0.00000000       0.00000000       4.35393939       0.00000000       0.00000000      -0.00090117
2
Properties=species:S:1:pos:R:3:forces:R:3 energy=0.0017036278229580204 pbc="F F F"
He       0.00000000       0.00000000       0.00000000       0.00000000       0.00000000       0.00092279
He       0.00000000       0.00000000       4.41272727       0.00000000       0.00000000      -0.00092279
2
Properties=species:S:1:pos:R:3:forces:R:3 energy=0.0017582423935251837 pbc="F F F"
He       0.00000000       0.00000000       0.00000000       0.00000000       0.00000000       0.00093241
He       0.00000000       0.00000000       4.47151515       0.00000000       0.00000000      -0.00093241
2
Properties=species:S:1:pos:R:3:forces:R:3 energy=0.0018128371475849897 pbc="F F F"
He       0.00000000       0.00000000       0.00000000       0.00000000       0.00000000       0.00092065
He       0.00000000       0.00000000       4.53030303       0.00000000       0.00000000      -0.00092065
2
Properties=species:S:1:pos:R:3:forces:R:3 energy=0.0018659283315906904 pbc="F F F"
He       0.00000000       0.00000000       0.00000000       0.00000000       0.00000000       0.00088047
He       0.00000000       0.00000000       4.58909091       0.00000000       0.00000000      -0.00088047
2
Properties=species:S:1:pos:R:3:forces:R:3 energy=0.0019157382634623198 pbc="F F F"
He       0.00000000       0.00000000       0.00000000       0.00000000       0.00000000       0.00080889
He       0.00000000       0.00000000       4.64787879       0.00000000       0.00000000      -0.00080889
2
Properties=species:S:1:pos:R:3:forces:R:3 energy=0.00196044992280238 pbc="F F F"
He       0.00000000       0.00000000       0.00000000       0.00000000       0.00000000       0.00070760
He       0.00000000       0.00000000       4.70666667       0.00000000       0.00000000      -0.00070760
2
Properties=species:S:1:pos:R:3:forces:R:3 energy=0.0019984645960802413 pbc="F F F"
He       0.00000000       0.00000000       0.00000000       0.00000000       0.00000000       0.00058237
He       0.00000000       0.00000000       4.76545455       0.00000000       0.00000000      -0.00058237
2
Properties=species:S:1:pos:R:3:forces:R:3 energy=0.0020286191447455855 pbc="F F F"
He       0.00000000       0.00000000       0.00000000       0.00000000       0.00000000       0.00044169
He       0.00000000       0.00000000       4.82424242       0.00000000       0.00000000      -0.00044169
2
Properties=species:S:1:pos:R:3:forces:R:3 energy=0.0020502817998985477 pbc="F F F"
He       0.00000000       0.00000000       0.00000000       0.00000000       0.00000000       0.00029518
He       0.00000000       0.00000000       4.88303030       0.00000000       0.00000000      -0.00029518
2
Properties=species:S:1:pos:R:3:forces:R:3 energy=0.0020633934026245667 pbc="F F F"
He       0.00000000       0.00000000       0.00000000       0.00000000       0.00000000       0.00015218
He       0.00000000       0.00000000       4.94181818       0.00000000       0.00000000      -0.00015218
2
Properties=species:S:1:pos:R:3:forces:R:3 energy=0.00206840509200202 pbc="F F F"
He       0.00000000       0.00000000       0.00000000       0.00000000       0.00000000       0.00002087
He       0.00000000       0.00000000       5.00060606       0.00000000       0.00000000      -0.00002087
2
Properties=species:S:1:pos:R:3:forces:R:3 energy=0.002066202746511786 pbc="F F F"
He       0.00000000       0.00000000       0.00000000       0.00000000       0.00000000      -0.00009236
He       0.00000000       0.00000000       5.05939394       0.00000000       0.00000000       0.00009236
2
Properties=species:S:1:pos:R:3:forces:R:3 energy=0.002057986021846452 pbc="F F F"
He       0.00000000       0.00000000       0.00000000       0.00000000       0.00000000      -0.00018318
He       0.00000000       0.00000000       5.11818182       0.00000000       0.00000000       0.00018318
2
Properties=species:S:1:pos:R:3:forces:R:3 energy=0.0020451507559673854 pbc="F F F"
He       0.00000000       0.00000000       0.00000000       0.00000000       0.00000000      -0.00024932
He       0.00000000       0.00000000       5.17696970       0.00000000       0.00000000       0.00024932
2
Properties=species:S:1:pos:R:3:forces:R:3 energy=0.002029164434833723 pbc="F F F"
He       0.00000000       0.00000000       0.00000000       0.00000000       0.00000000      -0.00029049
He       0.00000000       0.00000000       5.23575758       0.00000000       0.00000000       0.00029049
2
Properties=species:S:1:pos:R:3:forces:R:3 energy=0.0020114585990839724 pbc="F F F"
He       0.00000000       0.00000000       0.00000000       0.00000000       0.00000000      -0.00030819
He       0.00000000       0.00000000       5.29454545       0.00000000       0.00000000       0.00030819
2
Properties=species:S:1:pos:R:3:forces:R:3 energy=0.00199333044638746 pbc="F F F"
He       0.00000000       0.00000000       0.00000000       0.00000000       0.00000000      -0.00030537
He       0.00000000       0.00000000       5.35333333       0.00000000       0.00000000       0.00030537
2
Properties=species:S:1:pos:R:3:forces:R:3 energy=0.0019758772590105383 pbc="F F F"
He       0.00000000       0.00000000       0.00000000       0.00000000       0.00000000      -0.00028597
He       0.00000000       0.00000000       5.41212121       0.00000000       0.00000000       0.00028597
2
Properties=species:S:1:pos:R:3:forces:R:3 energy=0.001959945392250588 pbc="F F F"
He       0.00000000       0.00000000       0.00000000       0.00000000       0.00000000      -0.00025443
He       0.00000000       0.00000000       5.47090909       0.00000000       0.00000000       0.00025443
2
Properties=species:S:1:pos:R:3:forces:R:3 energy=0.0019461135160044126 pbc="F F F"
He       0.00000000       0.00000000       0.00000000       0.00000000       0.00000000      -0.00021517
He       0.00000000       0.00000000       5.52969697       0.00000000       0.00000000       0.00021517
2
Properties=species:S:1:pos:R:3:forces:R:3 energy=0.0019347185765255792 pbc="F F F"
He       0.00000000       0.00000000       0.00000000       0.00000000       0.00000000      -0.00017220
He       0.00000000       0.00000000       5.58848485       0.00000000       0.00000000       0.00017220
2
Properties=species:S:1:pos:R:3:forces:R:3 energy=0.0019258748792564731 pbc="F F F"
He       0.00000000       0.00000000       0.00000000       0.00000000       0.00000000      -0.00012887
He       0.00000000       0.00000000       5.64727273       0.00000000       0.00000000       0.00012887
2
Properties=species:S:1:pos:R:3:forces:R:3 energy=0.0019195244258385497 pbc="F F F"
He       0.00000000       0.00000000       0.00000000       0.00000000       0.00000000      -0.00008786
He       0.00000000       0.00000000       5.70606061       0.00000000       0.00000000       0.00008786
2
Properties=species:S:1:pos:R:3:forces:R:3 energy=0.0019154500659501244 pbc="F F F"
He       0.00000000       0.00000000       0.00000000       0.00000000       0.00000000      -0.00005125
He       0.00000000       0.00000000       5.76484848       0.00000000       0.00000000       0.00005125
2
Properties=species:S:1:pos:R:3:forces:R:3 energy=0.001913372832889727 pbc="F F F"
He       0.00000000       0.00000000       0.00000000       0.00000000       0.00000000      -0.00002073
He       0.00000000       0.00000000       5.82363636       0.00000000       0.00000000       0.00002073
2
Properties=species:S:1:pos:R:3:forces:R:3 energy=0.0019128748866481477 pbc="F F F"
He       0.00000000       0.00000000       0.00000000       0.00000000       0.00000000       0.00000229
He       0.00000000       0.00000000       5.88242424       0.00000000       0.00000000      -0.00000229
2
Properties=species:S:1:pos:R:3:forces:R:3 energy=0.0019134690699461518 pbc="F F F"
He       0.00000000       0.00000000       0.00000000       0.00000000       0.00000000       0.00001649
He       0.00000000       0.00000000       5.94121212       0.00000000       0.00000000      -0.00001649
2
Properties=species:S:1:pos:R:3:forces:R:3 energy=0.0019146129817079068 pbc="F F F"
He       0.00000000       0.00000000       0.00000000       0.00000000       0.00000000       0.00002058
He       0.00000000       0.00000000       6.00000000       0.00000000       0.00000000      -0.00002058
