2
Properties=species:S:1:pos:R:3:forces:R:3 energy=60.82791149466256 pbc="F F F"
He       0.00000000       0.00000000       0.00000000       0.00000000       0.00000000    -764.93212891
He       0.00000000       0.00000000       0.18000000       0.00000000       0.00000000     764.93212891
2
Properties=species:S:1:pos:R:3:forces:R:3 energy=29.708927272448435 pbc="F F F"
He       0.00000000       0.00000000       0.00000000       0.00000000       0.00000000    -358.72854614
He       0.00000000       0.00000000       0.23878788       0.00000000       0.00000000     358.72854614
2
Properties=species:S:1:pos:R:3:forces:R:3 energy=14.290153622513323 pbc="F F F"
He       0.00000000       0.00000000       0.00000000       0.00000000       0.00000000    -186.72489929
He       0.00000000       0.00000000       0.29757576       0.00000000       0.00000000     186.72489929
2
Properties=species:S:1:pos:R:3:forces:R:3 energy=6.189884307559219 pbc="F F F"
He       0.00000000       0.00000000       0.00000000       0.00000000       0.00000000     -97.38442230
He       0.00000000       0.00000000       0.35636364       0.00000000       0.00000000      97.38442230
2
Properties=species:S:1:pos:R:3:forces:R:3 energy=2.1256688920202387 pbc="F F F"
He       0.00000000       0.00000000       0.00000000       0.00000000       0.00000000     -45.34873962
He       0.00000000       0.00000000       0.41515152       0.00000000       0.00000000      45.34873962
2
Properties=species:S:1:pos:R:3:forces:R:3 energy=0.4341386769314002 pbc="F F F"
He       0.00000000       0.00000000       0.00000000       0.00000000       0.00000000     -15.22871304
He       0.00000000       0.00000000       0.47393939       0.00000000       0.00000000      15.22871304
2
Properties=species:S:1:pos:R:3:forces:R:3 energy=0.01598798476416987 pbc="F F F"
He       0.00000000       0.00000000       0.00000000       0.00000000       0.00000000      -1.49246705
He       0.00000000       0.00000000       0.53272727       0.00000000       0.00000000       1.49246705
2
Properties=species:S:1:pos:R:3:forces:R:3 energy=0.001751452221998792 pbc="F F F"
He       0.00000000       0.00000000       0.00000000       0.00000000       0.00000000      -0.01074187
He       0.00000000       0.00000000       0.59151515       0.00000000       0.00000000       0.01074187
2
Properties=species:S:1:pos:R:3:forces:R:3 energy=0.0012894109202396052 pbc="F F F"
He       0.00000000       0.00000000       0.00000000       0.00000000       0.00000000      -0.00587958
He       0.00000000       0.00000000       0.65030303       0.00000000       0.00000000       0.00587958
2
Properties=species:S:1:pos:R:3:forces:R:3 energy=0.0009893459319368144 pbc="F F F"
He       0.00000000       0.00000000       0.00000000       0.00000000       0.00000000      -0.00462276
He       0.00000000       0.00000000       0.70909091       0.00000000       0.00000000       0.00462276
2
Properties=species:S:1:pos:R:3:forces:R:3 energy=0.000735177351853519 pbc="F F F"
He       0.00000000       0.00000000       0.00000000       0.00000000       0.00000000      -0.00399629
He       0.00000000       0.00000000       0.76787879       0.00000000       0.00000000       0.00399629
2
Properties=species:S:1:pos:R:3:forces:R:3 energy=0.0005269635590814717 pbc="F F F"
He       0.00000000       0.00000000       0.00000000       0.00000000       0.00000000      -0.00301489
He       0.00000000       0.00000000       0.82666667       0.00000000       0.00000000       0.00301489
2
Properties=species:S:1:pos:R:3:forces:R:3 energy=0.00038720722716916313 pbc="F F F"
He       0.00000000       0.00000000       0.00000000       0.00000000       0.00000000      -0.00171809
He       0.00000000       0.00000000       0.88545455       0.00000000       0.00000000       0.00171809
2
Properties=species:S:1:pos:R:3:forces:R:3 energy=0.0003217237629361987 pbc="F F F"
He       0.00000000       0.00000000       0.00000000       0.00000000       0.00000000      -0.00058224
He       0.00000000       0.00000000       0.94424242       0.00000000       0.00000000       0.00058224
2
Properties=species:S:1:pos:R:3:forces:R:3 energy=0.0003077439290833609 pbc="F F F"
He       0.00000000       0.00000000       0.00000000       0.00000000       0.00000000       0.00001034
He       0.00000000       0.00000000       1.00303030       0.00000000       0.00000000      -0.00001034
2
Properties=species:S:1:pos:R:3:forces:R:3 energy=0.00031337638499544305 pbc="F F F"
He       0.00000000       0.00000000       0.00000000       0.00000000       0.00000000       0.00011904
He       0.00000000       0.00000000       1.06181818       0.00000000       0.00000000      -0.00011904
2
Properties=species:S:1:pos:R:3:forces:R:3 energy=0.00031657329726700887 pbc="F F F"
He       0.00000000       0.00000000       0.00000000       0.00000000       0.00000000      -0.00003851
He       0.00000000       0.00000000       1.12060606       0.00000000       0.00000000       0.00003851
2
Properties=species:S:1:pos:R:3:forces:R:3 energy=0.0003069158133832946 pbc="F F F"
He       0.00000000       0.00000000       0.00000000       0.00000000       0.00000000      -0.00029695
He       0.00000000       0.00000000       1.17939394       0.00000000       0.00000000       0.00029695
2
Properties=species:S:1:pos:R:3:forces:R:3 energy=0.0002816409762925879 pbc="F F F"
He       0.00000000       0.00000000       0.00000000       0.00000000       0.00000000      -0.00055783
He       0.00000000       0.00000000       1.23818182       0.00000000       0.00000000       0.00055783
2
Properties=species:S:1:pos:R:3:forces:R:3 energy=0.0002423011463738101 pbc="F F F"
He       0.00000000       0.00000000       0.00000000       0.00000000       0.00000000      -0.00077015
He       0.00000000       0.00000000       1.29696970       0.00000000       0.00000000       0.00077015
2
Properties=species:S:1:pos:R:3:forces:R:3 energy=0.00019240840708286528 pbc="F F F"
He       0.00000000       0.00000000       0.00000000       0.00000000       0.00000000      -0.00091591
He       0.00000000       0.00000000       1.35575758       0.00000000       0.00000000       0.00091591
2
Properties=species:S:1:pos:R:3:forces:R:3 energy=0.00013588405942052272 pbc="F F F"
He       0.00000000       0.00000000       0.00000000       0.00000000       0.00000000      -0.00099706
He       0.00000000       0.00000000       1.41454545       0.00000000       0.00000000       0.00099706
2
Properties=species:S:1:pos:R:3:forces:R:3 energy=7.623510547664935e-05 pbc="F F F"
He       0.00000000       0.00000000       0.00000000       0.00000000       0.00000000      -0.00102428
He       0.00000000       0.00000000       1.47333333       0.00000000       0.00000000       0.00102428
2
Properties=species:S:1:pos:R:3:forces:R:3 energy=1.626560258476172e-05 pbc="F F F"
He       0.00000000       0.00000000       0.00000000       0.00000000       0.00000000      -0.00100995
He       0.00000000       0.00000000       1.53212121       0.00000000       0.00000000       0.00100995
2
Properties=species:S:1:pos:R:3:forces:R:3 energy=-4.190822010701682e-05 pbc="F F F"
He       0.00000000       0.00000000       0.00000000       0.00000000       0.00000000      -0.00096483
He       0.00000000       0.00000000       1.59090909       0.00000000       0.00000000       0.00096483
2
Properties=species:S:1:pos:R:3:forces:R:3 energy=-9.67342478189841e-05 pbc="F F F"
He       0.00000000       0.00000000       0.00000000       0.00000000       0.00000000      -0.00089718
He       0.00000000       0.00000000       1.64969697       0.00000000       0.00000000       0.00089718
2
Properties=species:S:1:pos:R:3:forces:R:3 energy=-0.00014707303569620636 pbc="F F F"
He       0.00000000       0.00000000       0.00000000       0.00000000       0.00000000      -0.00081291
He       0.00000000       0.00000000       1.70848485       0.00000000       0.00000000       0.00081291
2
Properties=species:S:1:pos:R:3:forces:R:3 energy=-0.00019206881592946927 pbc="F F F"
He       0.00000000       0.00000000       0.00000000       0.00000000       0.00000000      -0.00071617
He       0.00000000       0.00000000       1.76727273       0.00000000       0.00000000       0.00071617
2
Properties=species:S:1:pos:R:3:forces:R:3 energy=-0.0002310877002970101 pbc="F F F"
He       0.00000000       0.00000000       0.00000000       0.00000000       0.00000000      -0.00060990
He       0.00000000       0.00000000       1.82606061       0.00000000       0.00000000       0.00060990
2
Properties=species:S:1:pos:R:3:forces:R:3 energy=-0.00026363530014600323 pbc="F F F"
He       0.00000000       0.00000000       0.00000000       0.00000000       0.00000000      -0.00049623
He       0.00000000       0.00000000       1.88484848       0.00000000       0.00000000       0.00049623
2
Properties=species:S:1:pos:R:3:forces:R:3 energy=-0.0002893220371117688 pbc="F F F"
He       0.00000000       0.00000000       0.00000000       0.00000000       0.00000000      -0.00037684
He       0.00000000       0.00000000       1.94363636       0.00000000       0.00000000       0.00037684
2
Properties=species:S:1:pos:R:3:forces:R:3 energy=-0.00030785753471572496 pbc="F F F"
He       0.00000000       0.00000000       0.00000000       0.00000000       0.00000000      -0.00025314
He       0.00000000       0.00000000       2.00242424       0.00000000       0.00000000       0.00025314
2
Properties=species:S:1:pos:R:3:forces:R:3 energy=-0.0003190275531958994 pbc="F F F"
He       0.00000000       0.00000000       0.00000000       0.00000000       0.00000000      -0.00012646
He       0.00000000       0.00000000       2.06121212       0.00000000       0.00000000       0.00012646
2
Properties=species:S:1:pos:R:3:forces:R:3 energy=-0.0003226914032007835 pbc="F F F"
He       0.00000000       0.00000000       0.00000000       0.00000000       0.00000000       0.00000190
He       0.00000000       0.00000000       2.12000000       0.00000000       0.00000000      -0.00000190
2
Properties=species:S:1:pos:R:3:forces:R:3 energy=-0.00031879876517179996 pbc="F F F"
He       0.00000000       0.00000000       0.00000000       0.00000000       0.00000000       0.00013059
He       0.00000000       0.00000000       2.17878788       0.00000000       0.00000000      -0.00013059
2
Properties=species:S:1:pos:R:3:forces:R:3 energy=-0.0003073605603437803 pbc="F F F"
He       0.00000000       0.00000000       0.00000000       0.00000000       0.00000000       0.00025818
He       0.00000000       0.00000000       2.23757576       0.00000000       0.00000000      -0.00025818
2
Properties=species:S:1:pos:R:3:forces:R:3 energy=-0.00028849131734555076 pbc="F F F"
He       0.00000000       0.00000000       0.00000000       0.00000000       0.00000000       0.00038313
He       0.00000000       0.00000000       2.29636364       0.00000000       0.00000000      -0.00038313
2
Properties=species:S:1:pos:R:3:forces:R:3 energy=-0.00026239500215507984 pbc="F F F"
He       0.00000000       0.00000000       0.00000000       0.00000000       0.00000000       0.00050385
He       0.00000000       0.00000000       2.35515152       0.00000000       0.00000000      -0.00050385
2
Properties=species:S:1:pos:R:3:forces:R:3 energy=-0.00022936587586443982 pbc="F F F"
He       0.00000000       0.00000000       0.00000000       0.00000000       0.00000000       0.00061869
He       0.00000000       0.00000000       2.41393939       0.00000000       0.00000000      -0.00061869
2
Properties=species:S:1:pos:R:3:forces:R:3 energy=-0.00018980152849338715 pbc="F F F"
He       0.00000000       0.00000000       0.00000000       0.00000000       0.00000000       0.00072596
He       0.00000000       0.00000000       2.47272727       0.00000000       0.00000000      -0.00072596
2
Properties=species:S:1:pos:R:3:forces:R:3 energy=-0.00014419137765258857 pbc="F F F"
He       0.00000000       0.00000000       0.00000000       0.00000000       0.00000000       0.00082408
He       0.00000000       0.00000000       2.53151515       0.00000000       0.00000000      -0.00082408
2
Properties=species:S:1:pos:R:3:forces:R:3 energy=-9.312138765243407e-05 pbc="F F F"
He       0.00000000       0.00000000       0.00000000       0.00000000       0.00000000       0.00091153
He       0.00000000       0.00000000       2.59030303       0.00000000       0.00000000      -0.00091153
2
Properties=species:S:1:pos:R:3:forces:R:3 energy=-3.725246520233042e-05 pbc="F F F"
He       0.00000000       0.00000000       0.00000000       0.00000000       0.00000000       0.00098706
He       0.00000000       0.00000000       2.64909091       0.00000000       0.00000000      -0.00098706
2
Properties=species:S:1:pos:R:3:forces:R:3 energy=2.2683950264133345e-05 pbc="F F F"
He       0.00000000       0.00000000       0.00000000       0.00000000       0.00000000       0.00104967
He       0.00000000       0.00000000       2.70787879       0.00000000       0.00000000      -0.00104967
2
Properties=species:S:1:pos:R:3:forces:R:3 energy=8.590072469383345e-05 pbc="F F F"
He       0.00000000       0.00000000       0.00000000       0.00000000       0.00000000       0.00109876
He       0.00000000       0.00000000       2.76666667       0.00000000       0.00000000      -0.00109876
2
Properties=species:S:1:pos:R:3:forces:R:3 energy=0.00015160165996328792 pbc="F F F"
He       0.00000000       0.00000000       0.00000000       0.00000000       0.00000000       0.00113415
He       0.00000000       0.00000000       2.82545455       0.00000000       0.00000000      -0.00113415
2
Properties=species:S:1:pos:R:3:forces:R:3 energy=0.00021898389296474757 pbc="F F F"
He       0.00000000       0.00000000       0.00000000       0.00000000       0.00000000       0.00115614
He       0.00000000       0.00000000       2.88424242       0.00000000       0.00000000      -0.00115614
2
Properties=species:S:1:pos:R:3:forces:R:3 energy=0.0002872894686899001 pbc="F F F"
He       0.00000000       0.00000000       0.00000000       0.00000000       0.00000000       0.00116556
He       0.00000000       0.00000000       2.94303030       0.00000000       0.00000000      -0.00116556
2
Properties=species:S:1:pos:R:3:forces:R:3 energy=0.00035580765138319074 pbc="F F F"
He       0.00000000       0.00000000       0.00000000       0.00000000       0.00000000       0.00116369
He       0.00000000       0.00000000       3.00181818       0.00000000       0.00000000      -0.00116369
2
Properties=species:S:1:pos:R:3:forces:R:3 energy=0.0004239230090399658 pbc="F F F"
He       0.00000000       0.00000000       0.00000000       0.00000000       0.00000000       0.00115225
He       0.00000000       0.00000000       3.06060606       0.00000000       0.00000000      -0.00115225
2
Properties=species:S:1:pos:R:3:forces:R:3 energy=0.0004911338515417733 pbc="F F F"
He       0.00000000       0.00000000       0.00000000       0.00000000       0.00000000       0.00113325
He       0.00000000       0.00000000       3.11939394       0.00000000       0.00000000      -0.00113325
2
Properties=species:S:1:pos:R:3:forces:R:3 energy=0.0005570594005658385 pbc="F F F"
He       0.00000000       0.00000000       0.00000000       0.00000000       0.00000000       0.00110890
He       0.00000000       0.00000000       3.17818182       0.00000000       0.00000000      -0.00110890
2
Properties=species:S:1:pos:R:3:forces:R:3 energy=0.0006214543130177396 pbc="F F F"
He       0.00000000       0.00000000       0.00000000       0.00000000       0.00000000       0.00108143
He       0.00000000       0.00000000       3.23696970       0.00000000       0.00000000      -0.00108143
2
Properties=species:S:1:pos:R:3:forces:R:3 energy=0.0006841916147109031 pbc="F F F"
He       0.00000000       0.00000000       0.00000000       0.00000000       0.00000000       0.00105293
He       0.00000000       0.00000000       3.29575758       0.00000000       0.00000000      -0.00105293
2
Properties=species:S:1:pos:R:3:forces:R:3 energy=0.0007452679393363892 pbc="F F F"
He       0.00000000       0.00000000       0.00000000       0.00000000       0.00000000       0.00102524
He       0.00000000       0.00000000       3.35454545       0.00000000       0.00000000      -0.00102524
2
Properties=species:S:1:pos:R:3:forces:R:3 energy=0.0008047783783312169 pbc="F F F"
He       0.00000000       0.00000000       0.00000000       0.00000000       0.00000000       0.00099978
He       0.00000000       0.00000000       3.41333333       0.00000000       0.00000000      -0.00099978
2
Properties=species:S:1:pos:R:3:forces:R:3 energy=0.0008628820625960014 pbc="F F F"
He       0.00000000       0.00000000       0.00000000       0.00000000       0.00000000       0.00097749
He       0.00000000       0.00000000       3.47212121       0.00000000       0.00000000      -0.00097749
2
Properties=species:S:1:pos:R:3:forces:R:3 energy=0.0009197776165632338 pbc="F F F"
He       0.00000000       0.00000000       0.00000000       0.00000000       0.00000000       0.00095876
He       0.00000000       0.00000000       3.53090909       0.00000000       0.00000000      -0.00095876
2
Properties=species:S:1:pos:R:3:forces:R:3 energy=0.000975675281156133 pbc="F F F"
He       0.00000000       0.00000000       0.00000000       0.00000000       0.00000000       0.00094344
He       0.00000000       0.00000000       3.58969697       0.00000000       0.00000000      -0.00094344
2
Properties=species:S:1:pos:R:3:forces:R:3 energy=0.0010307575427384566 pbc="F F F"
He       0.00000000       0.00000000       0.00000000       0.00000000       0.00000000       0.00093085
He       0.00000000       0.00000000       3.64848485       0.00000000       0.00000000      -0.00093085
2
Properties=species:S:1:pos:R:3:forces:R:3 energy=0.0010851537851340935 pbc="F F F"
He       0.00000000       0.00000000       0.00000000       0.00000000       0.00000000       0.00091995
He       0.00000000       0.00000000       3.70727273       0.00000000       0.00000000      -0.00091995
2
Properties=species:S:1:pos:R:3:forces:R:3 energy=0.0011389318409459435 pbc="F F F"
He       0.00000000       0.00000000       0.00000000       0.00000000       0.00000000       0.00090953
He       0.00000000       0.00000000       3.76606061       0.00000000       0.00000000      -0.00090953
2
Properties=species:S:1:pos:R:3:forces:R:3 energy=0.0011920821015589764 pbc="F F F"
He       0.00000000       0.00000000       0.00000000       0.00000000       0.00000000       0.00089853
He       0.00000000       0.00000000       3.82484848       0.00000000       0.00000000      -0.00089853
2
Properties=species:S:1:pos:R:3:forces:R:3 energy=0.0012445528726964612 pbc="F F F"
He       0.00000000       0.00000000       0.00000000       0.00000000       0.00000000       0.00088633
He       0.00000000       0.00000000       3.88363636       0.00000000       0.00000000      -0.00088633
2
Properties=species:S:1:pos:R:3:forces:R:3 energy=0.001296271806869377 pbc="F F F"
He       0.00000000       0.00000000       0.00000000       0.00000000       0.00000000       0.00087313
He       0.00000000       0.00000000       3.94242424       0.00000000       0.00000000      -0.00087313
2
Properties=species:S:1:pos:R:3:forces:R:3 energy=0.0013472127350359193 pbc="F F F"
He       0.00000000       0.00000000       0.00000000       0.00000000       0.00000000       0.00086008
He       0.00000000       0.00000000       4.00121212       0.00000000       0.00000000      -0.00086008
2
Properties=species:S:1:pos:R:3:forces:R:3 energy=0.0013974407702810531 pbc="F F F"
He       0.00000000       0.00000000       0.00000000       0.00000000       0.00000000       0.00084934
He       0.00000000       0.00000000       4.06000000       0.00000000       0.00000000      -0.00084934
2
Properties=species:S:1:pos:R:3:forces:R:3 energy=0.0014471722126942945 pbc="F F F"
He       0.00000000       0.00000000       0.00000000       0.00000000       0.00000000       0.00084366
He       0.00000000       0.00000000       4.11878788       0.00000000       0.00000000      -0.00084366
2
Properties=species:S:1:pos:R:3:forces:R:3 energy=0.001496788156275426 pbc="F F F"
He       0.00000000       0.00000000       0.00000000       0.00000000       0.00000000       0.00084572
He       0.00000000       0.00000000       4.17757576       0.00000000       0.00000000      -0.00084572
2
Properties=species:S:1:pos:R:3:forces:R:3 energy=0.0015467923640088742 pbc="F F F"
He       0.00000000       0.00000000       0.00000000       0.00000000       0.00000000       0.00085705
He       0.00000000       0.00000000       4.23636364       0.00000000       0.00000000      -0.00085705
2
Properties=species:S:1:pos:R:3:forces:R:3 energy=0.0015977251851625037 pbc="F F F"
He       0.00000000       0.00000000       0.00000000       0.00000000       0.00000000       0.00087685
He       0.00000000       0.00000000       4.29515152       0.00000000       0.00000000      -0.00087685
2
Properties=species:S:1:pos:R:3:forces:R:3 energy=0.0016499795352244108 pbc="F F F"
He       0.00000000       0.00000000       0.00000000       0.00000000       0.00000000       0.00090117
He       0.00000000       0.00000000       4.35393939       0.00000000       0.00000000      -0.00090117
2
Properties=species:S:1:pos:R:3:forces:R:3 energy=0.0017036280383677844 pbc="F F F"
He       0.00000000       0.00000000       0.00000000       0.00000000       0.00000000       0.00092279
He       0.00000000       0.00000000       4.41272727       0.00000000       0.00000000      -0.00092279
2
Properties=species:S:1:pos:R:3:forces:R:3 energy=0.0017582423935251837 pbc="F F F"
He       0.00000000       0.00000000       0.00000000       0.00000000       0.00000000       0.00093240
He       0.00000000       0.00000000       4.47151515       0.00000000       0.00000000      -0.00093240
2
Properties=species:S:1:pos:R:3:forces:R:3 energy=0.001812836914754346 pbc="F F F"
He       0.00000000       0.00000000       0.00000000       0.00000000       0.00000000       0.00092065
He       0.00000000       0.00000000       4.53030303       0.00000000       0.00000000      -0.00092065
2
Properties=species:S:1:pos:R:3:forces:R:3 energy=0.0018659286262928604 pbc="F F F"
He       0.00000000       0.00000000       0.00000000       0.00000000       0.00000000       0.00088047
He       0.00000000       0.00000000       4.58909091       0.00000000       0.00000000      -0.00088047
2
Properties=species:S:1:pos:R:3:forces:R:3 energy=0.0019157384962929635 pbc="F F F"
He       0.00000000       0.00000000       0.00000000       0.00000000       0.00000000       0.00080889
He       0.00000000       0.00000000       4.64787879       0.00000000       0.00000000      -0.00080889
2
Properties=species:S:1:pos:R:3:forces:R:3 energy=0.00196044992280238 pbc="F F F"
He       0.00000000       0.00000000       0.00000000       0.00000000       0.00000000       0.00070760
He       0.00000000       0.00000000       4.70666667       0.00000000       0.00000000      -0.00070760
2
Properties=species:S:1:pos:R:3:forces:R:3 energy=0.001998464130418954 pbc="F F F"
He       0.00000000       0.00000000       0.00000000       0.00000000       0.00000000       0.00058237
He       0.00000000       0.00000000       4.76545455       0.00000000       0.00000000      -0.00058237
2
Properties=species:S:1:pos:R:3:forces:R:3 energy=0.002028619610406873 pbc="F F F"
He       0.00000000       0.00000000       0.00000000       0.00000000       0.00000000       0.00044168
He       0.00000000       0.00000000       4.82424242       0.00000000       0.00000000      -0.00044168
2
Properties=species:S:1:pos:R:3:forces:R:3 energy=0.002050281567067904 pbc="F F F"
He       0.00000000       0.00000000       0.00000000       0.00000000       0.00000000       0.00029518
He       0.00000000       0.00000000       4.88303030       0.00000000       0.00000000      -0.00029518
2
Properties=species:S:1:pos:R:3:forces:R:3 energy=0.002063393169793923 pbc="F F F"
He       0.00000000       0.00000000       0.00000000       0.00000000       0.00000000       0.00015218
He       0.00000000       0.00000000       4.94181818       0.00000000       0.00000000      -0.00015218
2
Properties=species:S:1:pos:R:3:forces:R:3 energy=0.0020684053248326635 pbc="F F F"
He       0.00000000       0.00000000       0.00000000       0.00000000       0.00000000       0.00002088
He       0.00000000       0.00000000       5.00060606       0.00000000       0.00000000      -0.00002088
2
Properties=species:S:1:pos:R:3:forces:R:3 energy=0.002066202746511786 pbc="F F F"
He       0.00000000       0.00000000       0.00000000       0.00000000       0.00000000      -0.00009236
He       0.00000000       0.00000000       5.05939394       0.00000000       0.00000000       0.00009236
2
Properties=species:S:1:pos:R:3:forces:R:3 energy=0.0020579871859996704 pbc="F F F"
He       0.00000000       0.00000000       0.00000000       0.00000000       0.00000000      -0.00018318
He       0.00000000       0.00000000       5.11818182       0.00000000       0.00000000       0.00018318
2
Properties=species:S:1:pos:R:3:forces:R:3 energy=0.0020451507745288433 pbc="F F F"
He       0.00000000       0.00000000       0.00000000       0.00000000       0.00000000      -0.00024932
He       0.00000000       0.00000000       5.17696970       0.00000000       0.00000000       0.00024932
2
Properties=species:S:1:pos:R:3:forces:R:3 energy=0.002029164434833723 pbc="F F F"
He       0.00000000       0.00000000       0.00000000       0.00000000       0.00000000      -0.00029049
He       0.00000000       0.00000000       5.23575758       0.00000000       0.00000000       0.00029049
2
Properties=species:S:1:pos:R:3:forces:R:3 energy=0.002011457434930754 pbc="F F F"
He       0.00000000       0.00000000       0.00000000       0.00000000       0.00000000      -0.00030819
He       0.00000000       0.00000000       5.29454545       0.00000000       0.00000000       0.00030819
2
Properties=species:S:1:pos:R:3:forces:R:3 energy=0.001993330235211851 pbc="F F F"
He       0.00000000       0.00000000       0.00000000       0.00000000       0.00000000      -0.00030536
He       0.00000000       0.00000000       5.35333333       0.00000000       0.00000000       0.00030536
2
Properties=species:S:1:pos:R:3:forces:R:3 energy=0.001975880052978262 pbc="F F F"
He       0.00000000       0.00000000       0.00000000       0.00000000       0.00000000      -0.00028596
He       0.00000000       0.00000000       5.41212121       0.00000000       0.00000000       0.00028596
2
Properties=species:S:1:pos:R:3:forces:R:3 energy=0.001959945392250588 pbc="F F F"
He       0.00000000       0.00000000       0.00000000       0.00000000       0.00000000      -0.00025443
He       0.00000000       0.00000000       5.47090909       0.00000000       0.00000000       0.00025443
2
Properties=species:S:1:pos:R:3:forces:R:3 energy=0.001946113540753023 pbc="F F F"
He       0.00000000       0.00000000       0.00000000       0.00000000       0.00000000      -0.00021517
He       0.00000000       0.00000000       5.52969697       0.00000000       0.00000000       0.00021517
2
Properties=species:S:1:pos:R:3:forces:R:3 energy=0.0019347185765255792 pbc="F F F"
He       0.00000000       0.00000000       0.00000000       0.00000000       0.00000000      -0.00017220
He       0.00000000       0.00000000       5.58848485       0.00000000       0.00000000       0.00017220
2
Properties=species:S:1:pos:R:3:forces:R:3 energy=0.0019258811656838518 pbc="F F F"
He       0.00000000       0.00000000       0.00000000       0.00000000       0.00000000      -0.00012887
He       0.00000000       0.00000000       5.64727273       0.00000000       0.00000000       0.00012887
2
Properties=species:S:1:pos:R:3:forces:R:3 energy=0.0019195244413064312 pbc="F F F"
He       0.00000000       0.00000000       0.00000000       0.00000000       0.00000000      -0.00008787
He       0.00000000       0.00000000       5.70606061       0.00000000       0.00000000       0.00008787
2
Properties=species:S:1:pos:R:3:forces:R:3 energy=0.0019154500659501244 pbc="F F F"
He       0.00000000       0.00000000       0.00000000       0.00000000       0.00000000      -0.00005125
He       0.00000000       0.00000000       5.76484848       0.00000000       0.00000000       0.00005125
2
Properties=species:S:1:pos:R:3:forces:R:3 energy=0.0019133695732607159 pbc="F F F"
He       0.00000000       0.00000000       0.00000000       0.00000000       0.00000000      -0.00002073
He       0.00000000       0.00000000       5.82363636       0.00000000       0.00000000       0.00002073
2
Properties=species:S:1:pos:R:3:forces:R:3 energy=0.0019128748943820883 pbc="F F F"
He       0.00000000       0.00000000       0.00000000       0.00000000       0.00000000       0.00000229
He       0.00000000       0.00000000       5.88242424       0.00000000       0.00000000      -0.00000229
2
Properties=species:S:1:pos:R:3:forces:R:3 energy=0.0019134690699461518 pbc="F F F"
He       0.00000000       0.00000000       0.00000000       0.00000000       0.00000000       0.00001649
He       0.00000000       0.00000000       5.94121212       0.00000000       0.00000000      -0.00001649
2
Properties=species:S:1:pos:R:3:forces:R:3 energy=0.0019146129817079068 pbc="F F F"
He       0.00000000       0.00000000       0.00000000       0.00000000       0.00000000       0.00002058
He       0.00000000       0.00000000       6.00000000       0.00000000       0.00000000      -0.00002058
