2
Properties=species:S:1:pos:R:3:forces:R:3 energy=14973.787947110564 pbc="F F F"
Hf       0.00000000       0.00000000       0.00000000       0.00000000       0.00000000 -262289.18750000
Hf       0.00000000       0.00000000       0.18000000       0.00000000       0.00000000  262289.18750000
2
Properties=species:S:1:pos:R:3:forces:R:3 energy=5800.995954923063 pbc="F F F"
Hf       0.00000000       0.00000000       0.00000000       0.00000000       0.00000000  -86888.29687500
Hf       0.00000000       0.00000000       0.23878788       0.00000000       0.00000000   86888.29687500
2
Properties=species:S:1:pos:R:3:forces:R:3 energy=2526.311872891814 pbc="F F F"
Hf       0.00000000       0.00000000       0.00000000       0.00000000       0.00000000  -33866.50390625
Hf       0.00000000       0.00000000       0.29757576       0.00000000       0.00000000   33866.50390625
2
Properties=species:S:1:pos:R:3:forces:R:3 energy=1189.2132400824814 pbc="F F F"
Hf       0.00000000       0.00000000       0.00000000       0.00000000       0.00000000  -14604.13378906
Hf       0.00000000       0.00000000       0.35636364       0.00000000       0.00000000   14604.13378906
2
Properties=species:S:1:pos:R:3:forces:R:3 energy=593.2837356911181 pbc="F F F"
Hf       0.00000000       0.00000000       0.00000000       0.00000000       0.00000000   -6770.89892578
Hf       0.00000000       0.00000000       0.41515152       0.00000000       0.00000000    6770.89892578
2
Properties=species:S:1:pos:R:3:forces:R:3 energy=309.57404941182125 pbc="F F F"
Hf       0.00000000       0.00000000       0.00000000       0.00000000       0.00000000   -3328.18798828
Hf       0.00000000       0.00000000       0.47393939       0.00000000       0.00000000    3328.18798828
2
Properties=species:S:1:pos:R:3:forces:R:3 energy=166.91508335687158 pbc="F F F"
Hf       0.00000000       0.00000000       0.00000000       0.00000000       0.00000000   -1719.45666504
Hf       0.00000000       0.00000000       0.53272727       0.00000000       0.00000000    1719.45666504
2
Properties=species:S:1:pos:R:3:forces:R:3 energy=91.77321477823428 pbc="F F F"
Hf       0.00000000       0.00000000       0.00000000       0.00000000       0.00000000    -926.08666992
Hf       0.00000000       0.00000000       0.59151515       0.00000000       0.00000000     926.08666992
2
Properties=species:S:1:pos:R:3:forces:R:3 energy=50.689905626825045 pbc="F F F"
Hf       0.00000000       0.00000000       0.00000000       0.00000000       0.00000000    -514.54180908
Hf       0.00000000       0.00000000       0.65030303       0.00000000       0.00000000     514.54180908
2
Properties=species:S:1:pos:R:3:forces:R:3 energy=27.66232731095707 pbc="F F F"
Hf       0.00000000       0.00000000       0.00000000       0.00000000       0.00000000    -290.56701660
Hf       0.00000000       0.00000000       0.70909091       0.00000000       0.00000000     290.56701660
2
Properties=species:S:1:pos:R:3:forces:R:3 energy=14.655075625308095 pbc="F F F"
Hf       0.00000000       0.00000000       0.00000000       0.00000000       0.00000000    -163.53704834
Hf       0.00000000       0.00000000       0.76787879       0.00000000       0.00000000     163.53704834
2
Properties=species:S:1:pos:R:3:forces:R:3 energy=7.405141024858679 pbc="F F F"
Hf       0.00000000       0.00000000       0.00000000       0.00000000       0.00000000     -89.66043091
Hf       0.00000000       0.00000000       0.82666667       0.00000000       0.00000000      89.66043091
2
Properties=species:S:1:pos:R:3:forces:R:3 energy=3.5389187573084793 pbc="F F F"
Hf       0.00000000       0.00000000       0.00000000       0.00000000       0.00000000     -45.25046539
Hf       0.00000000       0.00000000       0.88545455       0.00000000       0.00000000      45.25046539
2
Properties=species:S:1:pos:R:3:forces:R:3 energy=1.8209289909619402 pbc="F F F"
Hf       0.00000000       0.00000000       0.00000000       0.00000000       0.00000000     -14.93873692
Hf       0.00000000       0.00000000       0.94424242       0.00000000       0.00000000      14.93873692
2
Properties=species:S:1:pos:R:3:forces:R:3 energy=1.4940210979694029 pbc="F F F"
Hf       0.00000000       0.00000000       0.00000000       0.00000000       0.00000000       0.42253554
Hf       0.00000000       0.00000000       1.00303030       0.00000000       0.00000000      -0.42253554
2
Properties=species:S:1:pos:R:3:forces:R:3 energy=1.4666165979171462 pbc="F F F"
Hf       0.00000000       0.00000000       0.00000000       0.00000000       0.00000000      -4.04859638
Hf       0.00000000       0.00000000       1.06181818       0.00000000       0.00000000       4.04859638
2
Properties=species:S:1:pos:R:3:forces:R:3 energy=0.8727663717510673 pbc="F F F"
Hf       0.00000000       0.00000000       0.00000000       0.00000000       0.00000000     -15.77094746
Hf       0.00000000       0.00000000       1.12060606       0.00000000       0.00000000      15.77094746
2
Properties=species:S:1:pos:R:3:forces:R:3 energy=-0.2082024550460706 pbc="F F F"
Hf       0.00000000       0.00000000       0.00000000       0.00000000       0.00000000     -19.30716515
Hf       0.00000000       0.00000000       1.17939394       0.00000000       0.00000000      19.30716515
2
Properties=species:S:1:pos:R:3:forces:R:3 energy=-1.3905586368863292 pbc="F F F"
Hf       0.00000000       0.00000000       0.00000000       0.00000000       0.00000000     -22.63179016
Hf       0.00000000       0.00000000       1.23818182       0.00000000       0.00000000      22.63179016
2
Properties=species:S:1:pos:R:3:forces:R:3 energy=-2.960139312385579 pbc="F F F"
Hf       0.00000000       0.00000000       0.00000000       0.00000000       0.00000000     -29.53992844
Hf       0.00000000       0.00000000       1.29696970       0.00000000       0.00000000      29.53992844
2
Properties=species:S:1:pos:R:3:forces:R:3 energy=-4.672217308825364 pbc="F F F"
Hf       0.00000000       0.00000000       0.00000000       0.00000000       0.00000000     -27.57134056
Hf       0.00000000       0.00000000       1.35575758       0.00000000       0.00000000      27.57134056
2
Properties=species:S:1:pos:R:3:forces:R:3 energy=-6.13570313612844 pbc="F F F"
Hf       0.00000000       0.00000000       0.00000000       0.00000000       0.00000000     -21.99426460
Hf       0.00000000       0.00000000       1.41454545       0.00000000       0.00000000      21.99426460
2
Properties=species:S:1:pos:R:3:forces:R:3 energy=-7.2346761967711775 pbc="F F F"
Hf       0.00000000       0.00000000       0.00000000       0.00000000       0.00000000     -15.11398983
Hf       0.00000000       0.00000000       1.47333333       0.00000000       0.00000000      15.11398983
2
Properties=species:S:1:pos:R:3:forces:R:3 energy=-7.883012496739563 pbc="F F F"
Hf       0.00000000       0.00000000       0.00000000       0.00000000       0.00000000      -6.89502048
Hf       0.00000000       0.00000000       1.53212121       0.00000000       0.00000000       6.89502048
2
Properties=species:S:1:pos:R:3:forces:R:3 energy=-8.081144448140533 pbc="F F F"
Hf       0.00000000       0.00000000       0.00000000       0.00000000       0.00000000      -0.44465828
Hf       0.00000000       0.00000000       1.59090909       0.00000000       0.00000000       0.44465828
2
Properties=species:S:1:pos:R:3:forces:R:3 energy=-8.015654537086153 pbc="F F F"
Hf       0.00000000       0.00000000       0.00000000       0.00000000       0.00000000       2.03215480
Hf       0.00000000       0.00000000       1.64969697       0.00000000       0.00000000      -2.03215480
2
Properties=species:S:1:pos:R:3:forces:R:3 energy=-7.901765033581014 pbc="F F F"
Hf       0.00000000       0.00000000       0.00000000       0.00000000       0.00000000       1.47819233
Hf       0.00000000       0.00000000       1.70848485       0.00000000       0.00000000      -1.47819233
2
Properties=species:S:1:pos:R:3:forces:R:3 energy=-7.869368182330151 pbc="F F F"
Hf       0.00000000       0.00000000       0.00000000       0.00000000       0.00000000      -0.48790184
Hf       0.00000000       0.00000000       1.76727273       0.00000000       0.00000000       0.48790184
2
Properties=species:S:1:pos:R:3:forces:R:3 energy=-7.959719359221651 pbc="F F F"
Hf       0.00000000       0.00000000       0.00000000       0.00000000       0.00000000      -2.50495386
Hf       0.00000000       0.00000000       1.82606061       0.00000000       0.00000000       2.50495386
2
Properties=species:S:1:pos:R:3:forces:R:3 energy=-8.149648427349272 pbc="F F F"
Hf       0.00000000       0.00000000       0.00000000       0.00000000       0.00000000      -3.82478738
Hf       0.00000000       0.00000000       1.88484848       0.00000000       0.00000000       3.82478738
2
Properties=species:S:1:pos:R:3:forces:R:3 energy=-8.39579980456829 pbc="F F F"
Hf       0.00000000       0.00000000       0.00000000       0.00000000       0.00000000      -4.45508385
Hf       0.00000000       0.00000000       1.94363636       0.00000000       0.00000000       4.45508385
2
Properties=species:S:1:pos:R:3:forces:R:3 energy=-8.664747556212939 pbc="F F F"
Hf       0.00000000       0.00000000       0.00000000       0.00000000       0.00000000      -4.63751841
Hf       0.00000000       0.00000000       2.00242424       0.00000000       0.00000000       4.63751841
2
Properties=species:S:1:pos:R:3:forces:R:3 energy=-8.935749151859786 pbc="F F F"
Hf       0.00000000       0.00000000       0.00000000       0.00000000       0.00000000      -4.54631329
Hf       0.00000000       0.00000000       2.06121212       0.00000000       0.00000000       4.54631329
2
Properties=species:S:1:pos:R:3:forces:R:3 energy=-9.19578883176723 pbc="F F F"
Hf       0.00000000       0.00000000       0.00000000       0.00000000       0.00000000      -4.27501535
Hf       0.00000000       0.00000000       2.12000000       0.00000000       0.00000000       4.27501535
2
Properties=species:S:1:pos:R:3:forces:R:3 energy=-9.435667396458415 pbc="F F F"
Hf       0.00000000       0.00000000       0.00000000       0.00000000       0.00000000      -3.86384106
Hf       0.00000000       0.00000000       2.17878788       0.00000000       0.00000000       3.86384106
2
Properties=species:S:1:pos:R:3:forces:R:3 energy=-9.647517444639874 pbc="F F F"
Hf       0.00000000       0.00000000       0.00000000       0.00000000       0.00000000      -3.32142949
Hf       0.00000000       0.00000000       2.23757576       0.00000000       0.00000000       3.32142949
2
Properties=species:S:1:pos:R:3:forces:R:3 energy=-9.823609889472229 pbc="F F F"
Hf       0.00000000       0.00000000       0.00000000       0.00000000       0.00000000      -2.64792752
Hf       0.00000000       0.00000000       2.29636364       0.00000000       0.00000000       2.64792752
2
Properties=species:S:1:pos:R:3:forces:R:3 energy=-9.956550165061593 pbc="F F F"
Hf       0.00000000       0.00000000       0.00000000       0.00000000       0.00000000      -1.85817313
Hf       0.00000000       0.00000000       2.35515152       0.00000000       0.00000000       1.85817313
2
Properties=species:S:1:pos:R:3:forces:R:3 energy=-10.040642154962233 pbc="F F F"
Hf       0.00000000       0.00000000       0.00000000       0.00000000       0.00000000      -0.99572277
Hf       0.00000000       0.00000000       2.41393939       0.00000000       0.00000000       0.99572277
2
Properties=species:S:1:pos:R:3:forces:R:3 energy=-10.073540285546095 pbc="F F F"
Hf       0.00000000       0.00000000       0.00000000       0.00000000       0.00000000      -0.12918222
Hf       0.00000000       0.00000000       2.47272727       0.00000000       0.00000000       0.12918222
2
Properties=species:S:1:pos:R:3:forces:R:3 energy=-10.057198320914003 pbc="F F F"
Hf       0.00000000       0.00000000       0.00000000       0.00000000       0.00000000       0.66820091
Hf       0.00000000       0.00000000       2.53151515       0.00000000       0.00000000      -0.66820091
2
Properties=species:S:1:pos:R:3:forces:R:3 energy=-9.997406596273516 pbc="F F F"
Hf       0.00000000       0.00000000       0.00000000       0.00000000       0.00000000       1.34267640
Hf       0.00000000       0.00000000       2.59030303       0.00000000       0.00000000      -1.34267640
2
Properties=species:S:1:pos:R:3:forces:R:3 energy=-9.902178996386274 pbc="F F F"
Hf       0.00000000       0.00000000       0.00000000       0.00000000       0.00000000       1.87297380
Hf       0.00000000       0.00000000       2.64909091       0.00000000       0.00000000      -1.87297380
2
Properties=species:S:1:pos:R:3:forces:R:3 energy=-9.779871732952724 pbc="F F F"
Hf       0.00000000       0.00000000       0.00000000       0.00000000       0.00000000       2.26690745
Hf       0.00000000       0.00000000       2.70787879       0.00000000       0.00000000      -2.26690745
2
Properties=species:S:1:pos:R:3:forces:R:3 energy=-9.637864073596004 pbc="F F F"
Hf       0.00000000       0.00000000       0.00000000       0.00000000       0.00000000       2.54751325
Hf       0.00000000       0.00000000       2.76666667       0.00000000       0.00000000      -2.54751325
2
Properties=species:S:1:pos:R:3:forces:R:3 energy=-9.482106550014374 pbc="F F F"
Hf       0.00000000       0.00000000       0.00000000       0.00000000       0.00000000       2.73793530
Hf       0.00000000       0.00000000       2.82545455       0.00000000       0.00000000      -2.73793530
2
Properties=species:S:1:pos:R:3:forces:R:3 energy=-9.317435505139462 pbc="F F F"
Hf       0.00000000       0.00000000       0.00000000       0.00000000       0.00000000       2.85211396
Hf       0.00000000       0.00000000       2.88424242       0.00000000       0.00000000      -2.85211396
2
Properties=species:S:1:pos:R:3:forces:R:3 energy=-9.148181970702394 pbc="F F F"
Hf       0.00000000       0.00000000       0.00000000       0.00000000       0.00000000       2.89397621
Hf       0.00000000       0.00000000       2.94303030       0.00000000       0.00000000      -2.89397621
2
Properties=species:S:1:pos:R:3:forces:R:3 energy=-8.978597021338441 pbc="F F F"
Hf       0.00000000       0.00000000       0.00000000       0.00000000       0.00000000       2.86339188
Hf       0.00000000       0.00000000       3.00181818       0.00000000       0.00000000      -2.86339188
2
Properties=species:S:1:pos:R:3:forces:R:3 energy=-8.812874131535615 pbc="F F F"
Hf       0.00000000       0.00000000       0.00000000       0.00000000       0.00000000       2.76384020
Hf       0.00000000       0.00000000       3.06060606       0.00000000       0.00000000      -2.76384020
2
Properties=species:S:1:pos:R:3:forces:R:3 energy=-8.654768103673389 pbc="F F F"
Hf       0.00000000       0.00000000       0.00000000       0.00000000       0.00000000       2.60688686
Hf       0.00000000       0.00000000       3.11939394       0.00000000       0.00000000      -2.60688686
2
Properties=species:S:1:pos:R:3:forces:R:3 energy=-8.507118066094591 pbc="F F F"
Hf       0.00000000       0.00000000       0.00000000       0.00000000       0.00000000       2.41170382
Hf       0.00000000       0.00000000       3.17818182       0.00000000       0.00000000      -2.41170382
2
Properties=species:S:1:pos:R:3:forces:R:3 energy=-8.371523164303815 pbc="F F F"
Hf       0.00000000       0.00000000       0.00000000       0.00000000       0.00000000       2.20036840
Hf       0.00000000       0.00000000       3.23696970       0.00000000       0.00000000      -2.20036840
2
Properties=species:S:1:pos:R:3:forces:R:3 energy=-8.248375146421674 pbc="F F F"
Hf       0.00000000       0.00000000       0.00000000       0.00000000       0.00000000       1.99024582
Hf       0.00000000       0.00000000       3.29575758       0.00000000       0.00000000      -1.99024582
2
Properties=species:S:1:pos:R:3:forces:R:3 energy=-8.137373682972918 pbc="F F F"
Hf       0.00000000       0.00000000       0.00000000       0.00000000       0.00000000       1.78711867
Hf       0.00000000       0.00000000       3.35454545       0.00000000       0.00000000      -1.78711867
2
Properties=species:S:1:pos:R:3:forces:R:3 energy=-8.038200632085461 pbc="F F F"
Hf       0.00000000       0.00000000       0.00000000       0.00000000       0.00000000       1.58672166
Hf       0.00000000       0.00000000       3.41333333       0.00000000       0.00000000      -1.58672166
2
Properties=species:S:1:pos:R:3:forces:R:3 energy=-7.95086123751419 pbc="F F F"
Hf       0.00000000       0.00000000       0.00000000       0.00000000       0.00000000       1.38409555
Hf       0.00000000       0.00000000       3.47212121       0.00000000       0.00000000      -1.38409555
2
Properties=species:S:1:pos:R:3:forces:R:3 energy=-7.8755020743455155 pbc="F F F"
Hf       0.00000000       0.00000000       0.00000000       0.00000000       0.00000000       1.17977655
Hf       0.00000000       0.00000000       3.53090909       0.00000000       0.00000000      -1.17977655
2
Properties=species:S:1:pos:R:3:forces:R:3 energy=-7.812065254863863 pbc="F F F"
Hf       0.00000000       0.00000000       0.00000000       0.00000000       0.00000000       0.97981262
Hf       0.00000000       0.00000000       3.58969697       0.00000000       0.00000000      -0.97981262
2
Properties=species:S:1:pos:R:3:forces:R:3 energy=-7.760024994989043 pbc="F F F"
Hf       0.00000000       0.00000000       0.00000000       0.00000000       0.00000000       0.79391944
Hf       0.00000000       0.00000000       3.64848485       0.00000000       0.00000000      -0.79391944
2
Properties=species:S:1:pos:R:3:forces:R:3 energy=-7.718225451185212 pbc="F F F"
Hf       0.00000000       0.00000000       0.00000000       0.00000000       0.00000000       0.63321918
Hf       0.00000000       0.00000000       3.70727273       0.00000000       0.00000000      -0.63321918
2
Properties=species:S:1:pos:R:3:forces:R:3 energy=-7.684884579768994 pbc="F F F"
Hf       0.00000000       0.00000000       0.00000000       0.00000000       0.00000000       0.50752908
Hf       0.00000000       0.00000000       3.76606061       0.00000000       0.00000000      -0.50752908
2
Properties=species:S:1:pos:R:3:forces:R:3 energy=-7.657748210479522 pbc="F F F"
Hf       0.00000000       0.00000000       0.00000000       0.00000000       0.00000000       0.42268911
Hf       0.00000000       0.00000000       3.82484848       0.00000000       0.00000000      -0.42268911
2
Properties=species:S:1:pos:R:3:forces:R:3 energy=-7.634376153510499 pbc="F F F"
Hf       0.00000000       0.00000000       0.00000000       0.00000000       0.00000000       0.37900910
Hf       0.00000000       0.00000000       3.88363636       0.00000000       0.00000000      -0.37900910
2
Properties=species:S:1:pos:R:3:forces:R:3 energy=-7.612475555721571 pbc="F F F"
Hf       0.00000000       0.00000000       0.00000000       0.00000000       0.00000000       0.37143835
Hf       0.00000000       0.00000000       3.94242424       0.00000000       0.00000000      -0.37143835
2
Properties=species:S:1:pos:R:3:forces:R:3 energy=-7.590169692419867 pbc="F F F"
Hf       0.00000000       0.00000000       0.00000000       0.00000000       0.00000000       0.39111832
Hf       0.00000000       0.00000000       4.00121212       0.00000000       0.00000000      -0.39111832
2
Properties=species:S:1:pos:R:3:forces:R:3 energy=-7.566161641218669 pbc="F F F"
Hf       0.00000000       0.00000000       0.00000000       0.00000000       0.00000000       0.42755097
Hf       0.00000000       0.00000000       4.06000000       0.00000000       0.00000000      -0.42755097
2
Properties=species:S:1:pos:R:3:forces:R:3 energy=-7.539771971179847 pbc="F F F"
Hf       0.00000000       0.00000000       0.00000000       0.00000000       0.00000000       0.47057515
Hf       0.00000000       0.00000000       4.11878788       0.00000000       0.00000000      -0.47057515
2
Properties=species:S:1:pos:R:3:forces:R:3 energy=-7.510871743193381 pbc="F F F"
Hf       0.00000000       0.00000000       0.00000000       0.00000000       0.00000000       0.51170647
Hf       0.00000000       0.00000000       4.17757576       0.00000000       0.00000000      -0.51170647
2
Properties=species:S:1:pos:R:3:forces:R:3 energy=-7.479766448478603 pbc="F F F"
Hf       0.00000000       0.00000000       0.00000000       0.00000000       0.00000000       0.54478258
Hf       0.00000000       0.00000000       4.23636364       0.00000000       0.00000000      -0.54478258
2
Properties=species:S:1:pos:R:3:forces:R:3 energy=-7.447050299154391 pbc="F F F"
Hf       0.00000000       0.00000000       0.00000000       0.00000000       0.00000000       0.56606644
Hf       0.00000000       0.00000000       4.29515152       0.00000000       0.00000000      -0.56606644
2
Properties=species:S:1:pos:R:3:forces:R:3 energy=-7.4134742077028 pbc="F F F"
Hf       0.00000000       0.00000000       0.00000000       0.00000000       0.00000000       0.57400542
Hf       0.00000000       0.00000000       4.35393939       0.00000000       0.00000000      -0.57400542
2
Properties=species:S:1:pos:R:3:forces:R:3 energy=-7.379820747927651 pbc="F F F"
Hf       0.00000000       0.00000000       0.00000000       0.00000000       0.00000000       0.56878328
Hf       0.00000000       0.00000000       4.41272727       0.00000000       0.00000000      -0.56878328
2
Properties=species:S:1:pos:R:3:forces:R:3 energy=-7.346830409921769 pbc="F F F"
Hf       0.00000000       0.00000000       0.00000000       0.00000000       0.00000000       0.55174923
Hf       0.00000000       0.00000000       4.47151515       0.00000000       0.00000000      -0.55174923
2
Properties=species:S:1:pos:R:3:forces:R:3 energy=-7.315141442557313 pbc="F F F"
Hf       0.00000000       0.00000000       0.00000000       0.00000000       0.00000000       0.52483726
Hf       0.00000000       0.00000000       4.53030303       0.00000000       0.00000000      -0.52483726
2
Properties=species:S:1:pos:R:3:forces:R:3 energy=-7.2852766477651665 pbc="F F F"
Hf       0.00000000       0.00000000       0.00000000       0.00000000       0.00000000       0.49004611
Hf       0.00000000       0.00000000       4.58909091       0.00000000       0.00000000      -0.49004611
2
Properties=species:S:1:pos:R:3:forces:R:3 energy=-7.25764458929886 pbc="F F F"
Hf       0.00000000       0.00000000       0.00000000       0.00000000       0.00000000       0.44913685
Hf       0.00000000       0.00000000       4.64787879       0.00000000       0.00000000      -0.44913685
2
Properties=species:S:1:pos:R:3:forces:R:3 energy=-7.2325595612105875 pbc="F F F"
Hf       0.00000000       0.00000000       0.00000000       0.00000000       0.00000000       0.40358210
Hf       0.00000000       0.00000000       4.70666667       0.00000000       0.00000000      -0.40358210
2
Properties=species:S:1:pos:R:3:forces:R:3 energy=-7.210256822961517 pbc="F F F"
Hf       0.00000000       0.00000000       0.00000000       0.00000000       0.00000000       0.35478690
Hf       0.00000000       0.00000000       4.76545455       0.00000000       0.00000000      -0.35478690
2
Properties=species:S:1:pos:R:3:forces:R:3 energy=-7.190876922320364 pbc="F F F"
Hf       0.00000000       0.00000000       0.00000000       0.00000000       0.00000000       0.30438051
Hf       0.00000000       0.00000000       4.82424242       0.00000000       0.00000000      -0.30438051
2
Properties=species:S:1:pos:R:3:forces:R:3 energy=-7.174459952806571 pbc="F F F"
Hf       0.00000000       0.00000000       0.00000000       0.00000000       0.00000000       0.25445417
Hf       0.00000000       0.00000000       4.88303030       0.00000000       0.00000000      -0.25445417
2
Properties=species:S:1:pos:R:3:forces:R:3 energy=-7.160902468787656 pbc="F F F"
Hf       0.00000000       0.00000000       0.00000000       0.00000000       0.00000000       0.20746654
Hf       0.00000000       0.00000000       4.94181818       0.00000000       0.00000000      -0.20746654
2
Properties=species:S:1:pos:R:3:forces:R:3 energy=-7.149958264923315 pbc="F F F"
Hf       0.00000000       0.00000000       0.00000000       0.00000000       0.00000000       0.16596781
Hf       0.00000000       0.00000000       5.00060606       0.00000000       0.00000000      -0.16596781
2
Properties=species:S:1:pos:R:3:forces:R:3 energy=-7.141239421706581 pbc="F F F"
Hf       0.00000000       0.00000000       0.00000000       0.00000000       0.00000000       0.13202649
Hf       0.00000000       0.00000000       5.05939394       0.00000000       0.00000000      -0.13202649
2
Properties=species:S:1:pos:R:3:forces:R:3 energy=-7.1342637959424895 pbc="F F F"
Hf       0.00000000       0.00000000       0.00000000       0.00000000       0.00000000       0.10678226
Hf       0.00000000       0.00000000       5.11818182       0.00000000       0.00000000      -0.10678226
2
Properties=species:S:1:pos:R:3:forces:R:3 energy=-7.1285151339082375 pbc="F F F"
Hf       0.00000000       0.00000000       0.00000000       0.00000000       0.00000000       0.09015821
Hf       0.00000000       0.00000000       5.17696970       0.00000000       0.00000000      -0.09015821
2
Properties=species:S:1:pos:R:3:forces:R:3 energy=-7.123517925283552 pbc="F F F"
Hf       0.00000000       0.00000000       0.00000000       0.00000000       0.00000000       0.08093436
Hf       0.00000000       0.00000000       5.23575758       0.00000000       0.00000000      -0.08093436
2
Properties=species:S:1:pos:R:3:forces:R:3 energy=-7.118894449379456 pbc="F F F"
Hf       0.00000000       0.00000000       0.00000000       0.00000000       0.00000000       0.07705761
Hf       0.00000000       0.00000000       5.29454545       0.00000000       0.00000000      -0.07705761
2
Properties=species:S:1:pos:R:3:forces:R:3 energy=-7.114400146619179 pbc="F F F"
Hf       0.00000000       0.00000000       0.00000000       0.00000000       0.00000000       0.07613077
Hf       0.00000000       0.00000000       5.35333333       0.00000000       0.00000000      -0.07613077
2
Properties=species:S:1:pos:R:3:forces:R:3 energy=-7.1099301422029 pbc="F F F"
Hf       0.00000000       0.00000000       0.00000000       0.00000000       0.00000000       0.07589790
Hf       0.00000000       0.00000000       5.41212121       0.00000000       0.00000000      -0.07589790
2
Properties=species:S:1:pos:R:3:forces:R:3 energy=-7.105496780908345 pbc="F F F"
Hf       0.00000000       0.00000000       0.00000000       0.00000000       0.00000000       0.07462803
Hf       0.00000000       0.00000000       5.47090909       0.00000000       0.00000000      -0.07462803
2
Properties=species:S:1:pos:R:3:forces:R:3 energy=-7.101195739974323 pbc="F F F"
Hf       0.00000000       0.00000000       0.00000000       0.00000000       0.00000000       0.07131641
Hf       0.00000000       0.00000000       5.52969697       0.00000000       0.00000000      -0.07131641
2
Properties=species:S:1:pos:R:3:forces:R:3 energy=-7.097157852708647 pbc="F F F"
Hf       0.00000000       0.00000000       0.00000000       0.00000000       0.00000000       0.06569153
Hf       0.00000000       0.00000000       5.58848485       0.00000000       0.00000000      -0.06569153
2
Properties=species:S:1:pos:R:3:forces:R:3 energy=-7.093511785309077 pbc="F F F"
Hf       0.00000000       0.00000000       0.00000000       0.00000000       0.00000000       0.05812450
Hf       0.00000000       0.00000000       5.64727273       0.00000000       0.00000000      -0.05812450
2
Properties=species:S:1:pos:R:3:forces:R:3 energy=-7.0903473425769 pbc="F F F"
Hf       0.00000000       0.00000000       0.00000000       0.00000000       0.00000000       0.04939526
Hf       0.00000000       0.00000000       5.70606061       0.00000000       0.00000000      -0.04939526
2
Properties=species:S:1:pos:R:3:forces:R:3 energy=-7.087704487990998 pbc="F F F"
Hf       0.00000000       0.00000000       0.00000000       0.00000000       0.00000000       0.04047289
Hf       0.00000000       0.00000000       5.76484848       0.00000000       0.00000000      -0.04047289
2
Properties=species:S:1:pos:R:3:forces:R:3 energy=-7.085571366667133 pbc="F F F"
Hf       0.00000000       0.00000000       0.00000000       0.00000000       0.00000000       0.03231413
Hf       0.00000000       0.00000000       5.82363636       0.00000000       0.00000000      -0.03231413
2
Properties=species:S:1:pos:R:3:forces:R:3 energy=-7.083876653788655 pbc="F F F"
Hf       0.00000000       0.00000000       0.00000000       0.00000000       0.00000000       0.02573299
Hf       0.00000000       0.00000000       5.88242424       0.00000000       0.00000000      -0.02573299
2
Properties=species:S:1:pos:R:3:forces:R:3 energy=-7.08250439357921 pbc="F F F"
Hf       0.00000000       0.00000000       0.00000000       0.00000000       0.00000000       0.02130337
Hf       0.00000000       0.00000000       5.94121212       0.00000000       0.00000000      -0.02130337
2
Properties=species:S:1:pos:R:3:forces:R:3 energy=-7.081321576662359 pbc="F F F"
Hf       0.00000000       0.00000000       0.00000000       0.00000000       0.00000000       0.01939954
Hf       0.00000000       0.00000000       6.00000000       0.00000000       0.00000000      -0.01939954
