2
Properties=species:S:1:pos:R:3:forces:R:3 energy=17306.06857671993 pbc="F F F"
Hg       0.00000000       0.00000000       0.00000000       0.00000000       0.00000000 -306335.06250000
Hg       0.00000000       0.00000000       0.18000000       0.00000000       0.00000000  306335.06250000
2
Properties=species:S:1:pos:R:3:forces:R:3 energy=6643.292697813677 pbc="F F F"
Hg       0.00000000       0.00000000       0.00000000       0.00000000       0.00000000 -100306.84375000
Hg       0.00000000       0.00000000       0.23878788       0.00000000       0.00000000  100306.84375000
2
Properties=species:S:1:pos:R:3:forces:R:3 energy=2882.340549376177 pbc="F F F"
Hg       0.00000000       0.00000000       0.00000000       0.00000000       0.00000000  -38616.26562500
Hg       0.00000000       0.00000000       0.29757576       0.00000000       0.00000000   38616.26562500
2
Properties=species:S:1:pos:R:3:forces:R:3 energy=1366.008640199657 pbc="F F F"
Hg       0.00000000       0.00000000       0.00000000       0.00000000       0.00000000  -16442.26953125
Hg       0.00000000       0.00000000       0.35636364       0.00000000       0.00000000   16442.26953125
2
Properties=species:S:1:pos:R:3:forces:R:3 energy=698.8118628622428 pbc="F F F"
Hg       0.00000000       0.00000000       0.00000000       0.00000000       0.00000000   -7525.01464844
Hg       0.00000000       0.00000000       0.41515152       0.00000000       0.00000000    7525.01464844
2
Properties=species:S:1:pos:R:3:forces:R:3 energy=385.49722664444533 pbc="F F F"
Hg       0.00000000       0.00000000       0.00000000       0.00000000       0.00000000   -3643.20068359
Hg       0.00000000       0.00000000       0.47393939       0.00000000       0.00000000    3643.20068359
2
Properties=species:S:1:pos:R:3:forces:R:3 energy=230.76530833165916 pbc="F F F"
Hg       0.00000000       0.00000000       0.00000000       0.00000000       0.00000000   -1839.55310059
Hg       0.00000000       0.00000000       0.53272727       0.00000000       0.00000000    1839.55310059
2
Properties=species:S:1:pos:R:3:forces:R:3 energy=151.68553542678993 pbc="F F F"
Hg       0.00000000       0.00000000       0.00000000       0.00000000       0.00000000    -950.42199707
Hg       0.00000000       0.00000000       0.59151515       0.00000000       0.00000000     950.42199707
2
Properties=species:S:1:pos:R:3:forces:R:3 energy=110.81436545253669 pbc="F F F"
Hg       0.00000000       0.00000000       0.00000000       0.00000000       0.00000000    -488.24093628
Hg       0.00000000       0.00000000       0.65030303       0.00000000       0.00000000     488.24093628
2
Properties=species:S:1:pos:R:3:forces:R:3 energy=90.18685548944185 pbc="F F F"
Hg       0.00000000       0.00000000       0.00000000       0.00000000       0.00000000    -238.51872253
Hg       0.00000000       0.00000000       0.70909091       0.00000000       0.00000000     238.51872253
2
Properties=species:S:1:pos:R:3:forces:R:3 energy=80.56028399889517 pbc="F F F"
Hg       0.00000000       0.00000000       0.00000000       0.00000000       0.00000000    -103.13166809
Hg       0.00000000       0.00000000       0.76787879       0.00000000       0.00000000     103.13166809
2
Properties=species:S:1:pos:R:3:forces:R:3 energy=76.7723280050245 pbc="F F F"
Hg       0.00000000       0.00000000       0.00000000       0.00000000       0.00000000     -34.16036224
Hg       0.00000000       0.00000000       0.82666667       0.00000000       0.00000000      34.16036224
2
Properties=species:S:1:pos:R:3:forces:R:3 energy=75.7409639157348 pbc="F F F"
Hg       0.00000000       0.00000000       0.00000000       0.00000000       0.00000000      -6.79176092
Hg       0.00000000       0.00000000       0.88545455       0.00000000       0.00000000       6.79176092
2
Properties=species:S:1:pos:R:3:forces:R:3 energy=75.32297276539582 pbc="F F F"
Hg       0.00000000       0.00000000       0.00000000       0.00000000       0.00000000     -12.69957161
Hg       0.00000000       0.00000000       0.94424242       0.00000000       0.00000000      12.69957161
2
Properties=species:S:1:pos:R:3:forces:R:3 energy=73.7060224513724 pbc="F F F"
Hg       0.00000000       0.00000000       0.00000000       0.00000000       0.00000000     -45.79247665
Hg       0.00000000       0.00000000       1.00303030       0.00000000       0.00000000      45.79247665
2
Properties=species:S:1:pos:R:3:forces:R:3 energy=69.72689738397486 pbc="F F F"
Hg       0.00000000       0.00000000       0.00000000       0.00000000       0.00000000     -89.61358643
Hg       0.00000000       0.00000000       1.06181818       0.00000000       0.00000000      89.61358643
2
Properties=species:S:1:pos:R:3:forces:R:3 energy=63.341682834805574 pbc="F F F"
Hg       0.00000000       0.00000000       0.00000000       0.00000000       0.00000000    -124.93128204
Hg       0.00000000       0.00000000       1.12060606       0.00000000       0.00000000     124.93128204
2
Properties=species:S:1:pos:R:3:forces:R:3 energy=55.44633300563672 pbc="F F F"
Hg       0.00000000       0.00000000       0.00000000       0.00000000       0.00000000    -139.92611694
Hg       0.00000000       0.00000000       1.17939394       0.00000000       0.00000000     139.92611694
2
Properties=species:S:1:pos:R:3:forces:R:3 energy=47.22341559110632 pbc="F F F"
Hg       0.00000000       0.00000000       0.00000000       0.00000000       0.00000000    -138.43643188
Hg       0.00000000       0.00000000       1.23818182       0.00000000       0.00000000     138.43643188
2
Properties=species:S:1:pos:R:3:forces:R:3 energy=39.211504908166866 pbc="F F F"
Hg       0.00000000       0.00000000       0.00000000       0.00000000       0.00000000    -133.99124146
Hg       0.00000000       0.00000000       1.29696970       0.00000000       0.00000000     133.99124146
2
Properties=species:S:1:pos:R:3:forces:R:3 energy=31.56300968021694 pbc="F F F"
Hg       0.00000000       0.00000000       0.00000000       0.00000000       0.00000000    -124.76943970
Hg       0.00000000       0.00000000       1.35575758       0.00000000       0.00000000     124.76943970
2
Properties=species:S:1:pos:R:3:forces:R:3 energy=24.70981482176918 pbc="F F F"
Hg       0.00000000       0.00000000       0.00000000       0.00000000       0.00000000    -107.38394928
Hg       0.00000000       0.00000000       1.41454545       0.00000000       0.00000000     107.38394928
2
Properties=species:S:1:pos:R:3:forces:R:3 energy=18.98819941612343 pbc="F F F"
Hg       0.00000000       0.00000000       0.00000000       0.00000000       0.00000000     -87.27462006
Hg       0.00000000       0.00000000       1.47333333       0.00000000       0.00000000      87.27462006
2
Properties=species:S:1:pos:R:3:forces:R:3 energy=14.419676632242872 pbc="F F F"
Hg       0.00000000       0.00000000       0.00000000       0.00000000       0.00000000     -68.53677368
Hg       0.00000000       0.00000000       1.53212121       0.00000000       0.00000000      68.53677368
2
Properties=species:S:1:pos:R:3:forces:R:3 energy=10.877739889622955 pbc="F F F"
Hg       0.00000000       0.00000000       0.00000000       0.00000000       0.00000000     -52.43412018
Hg       0.00000000       0.00000000       1.59090909       0.00000000       0.00000000      52.43412018
2
Properties=species:S:1:pos:R:3:forces:R:3 energy=8.1980799400415 pbc="F F F"
Hg       0.00000000       0.00000000       0.00000000       0.00000000       0.00000000     -39.21825027
Hg       0.00000000       0.00000000       1.64969697       0.00000000       0.00000000      39.21825027
2
Properties=species:S:1:pos:R:3:forces:R:3 energy=6.209268865019741 pbc="F F F"
Hg       0.00000000       0.00000000       0.00000000       0.00000000       0.00000000     -28.92197227
Hg       0.00000000       0.00000000       1.70848485       0.00000000       0.00000000      28.92197227
2
Properties=species:S:1:pos:R:3:forces:R:3 energy=4.743957645976216 pbc="F F F"
Hg       0.00000000       0.00000000       0.00000000       0.00000000       0.00000000     -21.35117912
Hg       0.00000000       0.00000000       1.76727273       0.00000000       0.00000000      21.35117912
2
Properties=species:S:1:pos:R:3:forces:R:3 energy=3.654601767363697 pbc="F F F"
Hg       0.00000000       0.00000000       0.00000000       0.00000000       0.00000000     -16.03517151
Hg       0.00000000       0.00000000       1.82606061       0.00000000       0.00000000      16.03517151
2
Properties=species:S:1:pos:R:3:forces:R:3 energy=2.8265733228593173 pbc="F F F"
Hg       0.00000000       0.00000000       0.00000000       0.00000000       0.00000000     -12.35497093
Hg       0.00000000       0.00000000       1.88484848       0.00000000       0.00000000      12.35497093
2
Properties=species:S:1:pos:R:3:forces:R:3 energy=2.1815033769145993 pbc="F F F"
Hg       0.00000000       0.00000000       0.00000000       0.00000000       0.00000000      -9.72427177
Hg       0.00000000       0.00000000       1.94363636       0.00000000       0.00000000       9.72427177
2
Properties=species:S:1:pos:R:3:forces:R:3 energy=1.6711262259581623 pbc="F F F"
Hg       0.00000000       0.00000000       0.00000000       0.00000000       0.00000000      -7.71835327
Hg       0.00000000       0.00000000       2.00242424       0.00000000       0.00000000       7.71835327
2
Properties=species:S:1:pos:R:3:forces:R:3 energy=1.2663672374557593 pbc="F F F"
Hg       0.00000000       0.00000000       0.00000000       0.00000000       0.00000000      -6.10762453
Hg       0.00000000       0.00000000       2.06121212       0.00000000       0.00000000       6.10762453
2
Properties=species:S:1:pos:R:3:forces:R:3 energy=0.9469149038491985 pbc="F F F"
Hg       0.00000000       0.00000000       0.00000000       0.00000000       0.00000000      -4.81043148
Hg       0.00000000       0.00000000       2.12000000       0.00000000       0.00000000       4.81043148
2
Properties=species:S:1:pos:R:3:forces:R:3 energy=0.6949488277683874 pbc="F F F"
Hg       0.00000000       0.00000000       0.00000000       0.00000000       0.00000000      -3.81023335
Hg       0.00000000       0.00000000       2.17878788       0.00000000       0.00000000       3.81023335
2
Properties=species:S:1:pos:R:3:forces:R:3 energy=0.4935125394035881 pbc="F F F"
Hg       0.00000000       0.00000000       0.00000000       0.00000000       0.00000000      -3.08509517
Hg       0.00000000       0.00000000       2.23757576       0.00000000       0.00000000       3.08509517
2
Properties=species:S:1:pos:R:3:forces:R:3 energy=0.3278604606910096 pbc="F F F"
Hg       0.00000000       0.00000000       0.00000000       0.00000000       0.00000000      -2.58160424
Hg       0.00000000       0.00000000       2.29636364       0.00000000       0.00000000       2.58160424
2
Properties=species:S:1:pos:R:3:forces:R:3 energy=0.18705481278074446 pbc="F F F"
Hg       0.00000000       0.00000000       0.00000000       0.00000000       0.00000000      -2.22751522
Hg       0.00000000       0.00000000       2.35515152       0.00000000       0.00000000       2.22751522
2
Properties=species:S:1:pos:R:3:forces:R:3 energy=0.06436679730971337 pbc="F F F"
Hg       0.00000000       0.00000000       0.00000000       0.00000000       0.00000000      -1.95539331
Hg       0.00000000       0.00000000       2.41393939       0.00000000       0.00000000       1.95539331
2
Properties=species:S:1:pos:R:3:forces:R:3 energy=-0.04351311104069035 pbc="F F F"
Hg       0.00000000       0.00000000       0.00000000       0.00000000       0.00000000      -1.71775353
Hg       0.00000000       0.00000000       2.47272727       0.00000000       0.00000000       1.71775353
2
Properties=species:S:1:pos:R:3:forces:R:3 energy=-0.1377771094904372 pbc="F F F"
Hg       0.00000000       0.00000000       0.00000000       0.00000000       0.00000000      -1.48973668
Hg       0.00000000       0.00000000       2.53151515       0.00000000       0.00000000       1.48973668
2
Properties=species:S:1:pos:R:3:forces:R:3 energy=-0.21870025735062887 pbc="F F F"
Hg       0.00000000       0.00000000       0.00000000       0.00000000       0.00000000      -1.26359320
Hg       0.00000000       0.00000000       2.59030303       0.00000000       0.00000000       1.26359320
2
Properties=species:S:1:pos:R:3:forces:R:3 energy=-0.28640833048803427 pbc="F F F"
Hg       0.00000000       0.00000000       0.00000000       0.00000000       0.00000000      -1.04076445
Hg       0.00000000       0.00000000       2.64909091       0.00000000       0.00000000       1.04076445
2
Properties=species:S:1:pos:R:3:forces:R:3 energy=-0.3412200688236066 pbc="F F F"
Hg       0.00000000       0.00000000       0.00000000       0.00000000       0.00000000      -0.82561171
Hg       0.00000000       0.00000000       2.70787879       0.00000000       0.00000000       0.82561171
2
Properties=species:S:1:pos:R:3:forces:R:3 energy=-0.38371078572591416 pbc="F F F"
Hg       0.00000000       0.00000000       0.00000000       0.00000000       0.00000000      -0.62218475
Hg       0.00000000       0.00000000       2.76666667       0.00000000       0.00000000       0.62218475
2
Properties=species:S:1:pos:R:3:forces:R:3 energy=-0.41466311954942314 pbc="F F F"
Hg       0.00000000       0.00000000       0.00000000       0.00000000       0.00000000      -0.43349710
Hg       0.00000000       0.00000000       2.82545455       0.00000000       0.00000000       0.43349710
2
Properties=species:S:1:pos:R:3:forces:R:3 energy=-0.4350167264301766 pbc="F F F"
Hg       0.00000000       0.00000000       0.00000000       0.00000000       0.00000000      -0.26202640
Hg       0.00000000       0.00000000       2.88424242       0.00000000       0.00000000       0.26202640
2
Properties=species:S:1:pos:R:3:forces:R:3 energy=-0.4458557929560739 pbc="F F F"
Hg       0.00000000       0.00000000       0.00000000       0.00000000       0.00000000      -0.11020454
Hg       0.00000000       0.00000000       2.94303030       0.00000000       0.00000000       0.11020454
2
Properties=species:S:1:pos:R:3:forces:R:3 energy=-0.448405136988809 pbc="F F F"
Hg       0.00000000       0.00000000       0.00000000       0.00000000       0.00000000       0.01964972
Hg       0.00000000       0.00000000       3.00181818       0.00000000       0.00000000      -0.01964972
2
Properties=species:S:1:pos:R:3:forces:R:3 energy=-0.4440102744154477 pbc="F F F"
Hg       0.00000000       0.00000000       0.00000000       0.00000000       0.00000000       0.12582594
Hg       0.00000000       0.00000000       3.06060606       0.00000000       0.00000000      -0.12582594
2
Properties=species:S:1:pos:R:3:forces:R:3 energy=-0.43409143636700287 pbc="F F F"
Hg       0.00000000       0.00000000       0.00000000       0.00000000       0.00000000       0.20751952
Hg       0.00000000       0.00000000       3.11939394       0.00000000       0.00000000      -0.20751952
2
Properties=species:S:1:pos:R:3:forces:R:3 energy=-0.42009354045313124 pbc="F F F"
Hg       0.00000000       0.00000000       0.00000000       0.00000000       0.00000000       0.26460510
Hg       0.00000000       0.00000000       3.17818182       0.00000000       0.00000000      -0.26460510
2
Properties=species:S:1:pos:R:3:forces:R:3 energy=-0.40345462601866916 pbc="F F F"
Hg       0.00000000       0.00000000       0.00000000       0.00000000       0.00000000       0.29752788
Hg       0.00000000       0.00000000       3.23696970       0.00000000       0.00000000      -0.29752788
2
Properties=species:S:1:pos:R:3:forces:R:3 energy=-0.3855522485028259 pbc="F F F"
Hg       0.00000000       0.00000000       0.00000000       0.00000000       0.00000000       0.30801857
Hg       0.00000000       0.00000000       3.29575758       0.00000000       0.00000000      -0.30801857
2
Properties=species:S:1:pos:R:3:forces:R:3 energy=-0.3676095947373333 pbc="F F F"
Hg       0.00000000       0.00000000       0.00000000       0.00000000       0.00000000       0.29962450
Hg       0.00000000       0.00000000       3.35454545       0.00000000       0.00000000      -0.29962450
2
Properties=species:S:1:pos:R:3:forces:R:3 energy=-0.35060049746695204 pbc="F F F"
Hg       0.00000000       0.00000000       0.00000000       0.00000000       0.00000000       0.27711692
Hg       0.00000000       0.00000000       3.41333333       0.00000000       0.00000000      -0.27711692
2
Properties=species:S:1:pos:R:3:forces:R:3 energy=-0.3352064522018861 pbc="F F F"
Hg       0.00000000       0.00000000       0.00000000       0.00000000       0.00000000       0.24545227
Hg       0.00000000       0.00000000       3.47212121       0.00000000       0.00000000      -0.24545227
2
Properties=species:S:1:pos:R:3:forces:R:3 energy=-0.32183296502971726 pbc="F F F"
Hg       0.00000000       0.00000000       0.00000000       0.00000000       0.00000000       0.20908079
Hg       0.00000000       0.00000000       3.53090909       0.00000000       0.00000000      -0.20908079
2
Properties=species:S:1:pos:R:3:forces:R:3 energy=-0.31064382459132767 pbc="F F F"
Hg       0.00000000       0.00000000       0.00000000       0.00000000       0.00000000       0.17165472
Hg       0.00000000       0.00000000       3.58969697       0.00000000       0.00000000      -0.17165472
2
Properties=species:S:1:pos:R:3:forces:R:3 energy=-0.301615953022042 pbc="F F F"
Hg       0.00000000       0.00000000       0.00000000       0.00000000       0.00000000       0.13595669
Hg       0.00000000       0.00000000       3.64848485       0.00000000       0.00000000      -0.13595669
2
Properties=species:S:1:pos:R:3:forces:R:3 energy=-0.29458654349057056 pbc="F F F"
Hg       0.00000000       0.00000000       0.00000000       0.00000000       0.00000000       0.10391661
Hg       0.00000000       0.00000000       3.70727273       0.00000000       0.00000000      -0.10391661
2
Properties=species:S:1:pos:R:3:forces:R:3 energy=-0.2893030398257266 pbc="F F F"
Hg       0.00000000       0.00000000       0.00000000       0.00000000       0.00000000       0.07668737
Hg       0.00000000       0.00000000       3.76606061       0.00000000       0.00000000      -0.07668737
2
Properties=species:S:1:pos:R:3:forces:R:3 energy=-0.28546575734129687 pbc="F F F"
Hg       0.00000000       0.00000000       0.00000000       0.00000000       0.00000000       0.05475727
Hg       0.00000000       0.00000000       3.82484848       0.00000000       0.00000000      -0.05475727
2
Properties=species:S:1:pos:R:3:forces:R:3 energy=-0.28276182063765004 pbc="F F F"
Hg       0.00000000       0.00000000       0.00000000       0.00000000       0.00000000       0.03807954
Hg       0.00000000       0.00000000       3.88363636       0.00000000       0.00000000      -0.03807954
2
Properties=species:S:1:pos:R:3:forces:R:3 energy=-0.2808938273302319 pbc="F F F"
Hg       0.00000000       0.00000000       0.00000000       0.00000000       0.00000000       0.02622176
Hg       0.00000000       0.00000000       3.94242424       0.00000000       0.00000000      -0.02622176
2
Properties=species:S:1:pos:R:3:forces:R:3 energy=-0.2795975392496979 pbc="F F F"
Hg       0.00000000       0.00000000       0.00000000       0.00000000       0.00000000       0.01850697
Hg       0.00000000       0.00000000       4.00121212       0.00000000       0.00000000      -0.01850697
2
Properties=species:S:1:pos:R:3:forces:R:3 energy=-0.27865217468455306 pbc="F F F"
Hg       0.00000000       0.00000000       0.00000000       0.00000000       0.00000000       0.01414545
Hg       0.00000000       0.00000000       4.06000000       0.00000000       0.00000000      -0.01414545
2
Properties=species:S:1:pos:R:3:forces:R:3 energy=-0.27788435754284196 pbc="F F F"
Hg       0.00000000       0.00000000       0.00000000       0.00000000       0.00000000       0.01233691
Hg       0.00000000       0.00000000       4.11878788       0.00000000       0.00000000      -0.01233691
2
Properties=species:S:1:pos:R:3:forces:R:3 energy=-0.2771663197093388 pbc="F F F"
Hg       0.00000000       0.00000000       0.00000000       0.00000000       0.00000000       0.01234007
Hg       0.00000000       0.00000000       4.17757576       0.00000000       0.00000000      -0.01234007
2
Properties=species:S:1:pos:R:3:forces:R:3 energy=-0.2764106939746439 pbc="F F F"
Hg       0.00000000       0.00000000       0.00000000       0.00000000       0.00000000       0.01351109
Hg       0.00000000       0.00000000       4.23636364       0.00000000       0.00000000      -0.01351109
2
Properties=species:S:1:pos:R:3:forces:R:3 energy=-0.2755653202195453 pbc="F F F"
Hg       0.00000000       0.00000000       0.00000000       0.00000000       0.00000000       0.01531597
Hg       0.00000000       0.00000000       4.29515152       0.00000000       0.00000000      -0.01531597
2
Properties=species:S:1:pos:R:3:forces:R:3 energy=-0.2746059555793722 pbc="F F F"
Hg       0.00000000       0.00000000       0.00000000       0.00000000       0.00000000       0.01732645
Hg       0.00000000       0.00000000       4.35393939       0.00000000       0.00000000      -0.01732645
2
Properties=species:S:1:pos:R:3:forces:R:3 energy=-0.2735307329818987 pbc="F F F"
Hg       0.00000000       0.00000000       0.00000000       0.00000000       0.00000000       0.01921029
Hg       0.00000000       0.00000000       4.41272727       0.00000000       0.00000000      -0.01921029
2
Properties=species:S:1:pos:R:3:forces:R:3 energy=-0.2723545824233749 pbc="F F F"
Hg       0.00000000       0.00000000       0.00000000       0.00000000       0.00000000       0.02072133
Hg       0.00000000       0.00000000       4.47151515       0.00000000       0.00000000      -0.02072133
2
Properties=species:S:1:pos:R:3:forces:R:3 energy=-0.27110501681574234 pbc="F F F"
Hg       0.00000000       0.00000000       0.00000000       0.00000000       0.00000000       0.02169262
Hg       0.00000000       0.00000000       4.53030303       0.00000000       0.00000000      -0.02169262
2
Properties=species:S:1:pos:R:3:forces:R:3 energy=-0.2698165530946484 pbc="F F F"
Hg       0.00000000       0.00000000       0.00000000       0.00000000       0.00000000       0.02203192
Hg       0.00000000       0.00000000       4.58909091       0.00000000       0.00000000      -0.02203192
2
Properties=species:S:1:pos:R:3:forces:R:3 energy=-0.26852736262599963 pbc="F F F"
Hg       0.00000000       0.00000000       0.00000000       0.00000000       0.00000000       0.02172015
Hg       0.00000000       0.00000000       4.64787879       0.00000000       0.00000000      -0.02172015
2
Properties=species:S:1:pos:R:3:forces:R:3 energy=-0.2672746135401377 pbc="F F F"
Hg       0.00000000       0.00000000       0.00000000       0.00000000       0.00000000       0.02080784
Hg       0.00000000       0.00000000       4.70666667       0.00000000       0.00000000      -0.02080784
2
Properties=species:S:1:pos:R:3:forces:R:3 energy=-0.26609047000903135 pbc="F F F"
Hg       0.00000000       0.00000000       0.00000000       0.00000000       0.00000000       0.01940805
Hg       0.00000000       0.00000000       4.76545455       0.00000000       0.00000000      -0.01940805
2
Properties=species:S:1:pos:R:3:forces:R:3 energy=-0.2649991237473764 pbc="F F F"
Hg       0.00000000       0.00000000       0.00000000       0.00000000       0.00000000       0.01767940
Hg       0.00000000       0.00000000       4.82424242       0.00000000       0.00000000      -0.01767940
2
Properties=species:S:1:pos:R:3:forces:R:3 energy=-0.2640147373603633 pbc="F F F"
Hg       0.00000000       0.00000000       0.00000000       0.00000000       0.00000000       0.01580053
Hg       0.00000000       0.00000000       4.88303030       0.00000000       0.00000000      -0.01580053
2
Properties=species:S:1:pos:R:3:forces:R:3 energy=-0.26314103603065375 pbc="F F F"
Hg       0.00000000       0.00000000       0.00000000       0.00000000       0.00000000       0.01393788
Hg       0.00000000       0.00000000       4.94181818       0.00000000       0.00000000      -0.01393788
2
Properties=species:S:1:pos:R:3:forces:R:3 energy=-0.2623731225842126 pbc="F F F"
Hg       0.00000000       0.00000000       0.00000000       0.00000000       0.00000000       0.01221885
Hg       0.00000000       0.00000000       5.00060606       0.00000000       0.00000000      -0.01221885
2
Properties=species:S:1:pos:R:3:forces:R:3 energy=-0.2617001238533437 pbc="F F F"
Hg       0.00000000       0.00000000       0.00000000       0.00000000       0.00000000       0.01071486
Hg       0.00000000       0.00000000       5.05939394       0.00000000       0.00000000      -0.01071486
2
Properties=species:S:1:pos:R:3:forces:R:3 energy=-0.2611087251277273 pbc="F F F"
Hg       0.00000000       0.00000000       0.00000000       0.00000000       0.00000000       0.00944265
Hg       0.00000000       0.00000000       5.11818182       0.00000000       0.00000000      -0.00944265
2
Properties=species:S:1:pos:R:3:forces:R:3 energy=-0.2605857657703162 pbc="F F F"
Hg       0.00000000       0.00000000       0.00000000       0.00000000       0.00000000       0.00838107
Hg       0.00000000       0.00000000       5.17696970       0.00000000       0.00000000      -0.00838107
2
Properties=species:S:1:pos:R:3:forces:R:3 energy=-0.26011985200255494 pbc="F F F"
Hg       0.00000000       0.00000000       0.00000000       0.00000000       0.00000000       0.00749511
Hg       0.00000000       0.00000000       5.23575758       0.00000000       0.00000000      -0.00749511
2
Properties=species:S:1:pos:R:3:forces:R:3 energy=-0.25970158927930265 pbc="F F F"
Hg       0.00000000       0.00000000       0.00000000       0.00000000       0.00000000       0.00675852
Hg       0.00000000       0.00000000       5.29454545       0.00000000       0.00000000      -0.00675852
2
Properties=species:S:1:pos:R:3:forces:R:3 energy=-0.2593224392971807 pbc="F F F"
Hg       0.00000000       0.00000000       0.00000000       0.00000000       0.00000000       0.00616542
Hg       0.00000000       0.00000000       5.35333333       0.00000000       0.00000000      -0.00616542
2
Properties=species:S:1:pos:R:3:forces:R:3 energy=-0.25897363696153886 pbc="F F F"
Hg       0.00000000       0.00000000       0.00000000       0.00000000       0.00000000       0.00572872
Hg       0.00000000       0.00000000       5.41212121       0.00000000       0.00000000      -0.00572872
2
Properties=species:S:1:pos:R:3:forces:R:3 energy=-0.2586454381388104 pbc="F F F"
Hg       0.00000000       0.00000000       0.00000000       0.00000000       0.00000000       0.00546723
Hg       0.00000000       0.00000000       5.47090909       0.00000000       0.00000000      -0.00546723
2
Properties=species:S:1:pos:R:3:forces:R:3 energy=-0.25832722094281213 pbc="F F F"
Hg       0.00000000       0.00000000       0.00000000       0.00000000       0.00000000       0.00538941
Hg       0.00000000       0.00000000       5.52969697       0.00000000       0.00000000      -0.00538941
2
Properties=species:S:1:pos:R:3:forces:R:3 energy=-0.25800843588726524 pbc="F F F"
Hg       0.00000000       0.00000000       0.00000000       0.00000000       0.00000000       0.00548127
Hg       0.00000000       0.00000000       5.58848485       0.00000000       0.00000000      -0.00548127
2
Properties=species:S:1:pos:R:3:forces:R:3 energy=-0.25768021867101426 pbc="F F F"
Hg       0.00000000       0.00000000       0.00000000       0.00000000       0.00000000       0.00570131
Hg       0.00000000       0.00000000       5.64727273       0.00000000       0.00000000      -0.00570131
2
Properties=species:S:1:pos:R:3:forces:R:3 energy=-0.2573367399940457 pbc="F F F"
Hg       0.00000000       0.00000000       0.00000000       0.00000000       0.00000000       0.00598737
Hg       0.00000000       0.00000000       5.70606061       0.00000000       0.00000000      -0.00598737
2
Properties=species:S:1:pos:R:3:forces:R:3 energy=-0.2569765445781166 pbc="F F F"
Hg       0.00000000       0.00000000       0.00000000       0.00000000       0.00000000       0.00626659
Hg       0.00000000       0.00000000       5.76484848       0.00000000       0.00000000      -0.00626659
2
Properties=species:S:1:pos:R:3:forces:R:3 energy=-0.2566015305522142 pbc="F F F"
Hg       0.00000000       0.00000000       0.00000000       0.00000000       0.00000000       0.00646989
Hg       0.00000000       0.00000000       5.82363636       0.00000000       0.00000000      -0.00646989
2
Properties=species:S:1:pos:R:3:forces:R:3 energy=-0.25621819610637486 pbc="F F F"
Hg       0.00000000       0.00000000       0.00000000       0.00000000       0.00000000       0.00654305
Hg       0.00000000       0.00000000       5.88242424       0.00000000       0.00000000      -0.00654305
2
Properties=species:S:1:pos:R:3:forces:R:3 energy=-0.2558354691118652 pbc="F F F"
Hg       0.00000000       0.00000000       0.00000000       0.00000000       0.00000000       0.00645093
Hg       0.00000000       0.00000000       5.94121212       0.00000000       0.00000000      -0.00645093
2
Properties=species:S:1:pos:R:3:forces:R:3 energy=-0.25546335745115756 pbc="F F F"
Hg       0.00000000       0.00000000       0.00000000       0.00000000       0.00000000       0.00617705
Hg       0.00000000       0.00000000       6.00000000       0.00000000       0.00000000      -0.00617705
