2
Properties=species:S:1:pos:R:3:forces:R:3 energy=70197.45611569205 pbc="F F F"
Ho       0.00000000       0.00000000       0.00000000       0.00000000       0.00000000 -1751779.25000000
Ho       0.00000000       0.00000000       0.10000000       0.00000000       0.00000000 1751779.25000000
2
Properties=species:S:1:pos:R:3:forces:R:3 energy=19611.70220944206 pbc="F F F"
Ho       0.00000000       0.00000000       0.00000000       0.00000000       0.00000000 -365742.53125000
Ho       0.00000000       0.00000000       0.15959596       0.00000000       0.00000000  365742.53125000
2
Properties=species:S:1:pos:R:3:forces:R:3 energy=7157.08648678581 pbc="F F F"
Ho       0.00000000       0.00000000       0.00000000       0.00000000       0.00000000 -110911.96875000
Ho       0.00000000       0.00000000       0.21919192       0.00000000       0.00000000  110911.96875000
2
Properties=species:S:1:pos:R:3:forces:R:3 energy=3015.84722897331 pbc="F F F"
Ho       0.00000000       0.00000000       0.00000000       0.00000000       0.00000000  -41141.39062500
Ho       0.00000000       0.00000000       0.27878788       0.00000000       0.00000000   41141.39062500
2
Properties=species:S:1:pos:R:3:forces:R:3 energy=1392.6493529967472 pbc="F F F"
Ho       0.00000000       0.00000000       0.00000000       0.00000000       0.00000000  -17198.29296875
Ho       0.00000000       0.00000000       0.33838384       0.00000000       0.00000000   17198.29296875
2
Properties=species:S:1:pos:R:3:forces:R:3 energy=688.5275268248722 pbc="F F F"
Ho       0.00000000       0.00000000       0.00000000       0.00000000       0.00000000   -7795.06689453
Ho       0.00000000       0.00000000       0.39797980       0.00000000       0.00000000    7795.06689453
2
Properties=species:S:1:pos:R:3:forces:R:3 energy=360.174865704731 pbc="F F F"
Ho       0.00000000       0.00000000       0.00000000       0.00000000       0.00000000   -3761.84887695
Ho       0.00000000       0.00000000       0.45757576       0.00000000       0.00000000    3761.84887695
2
Properties=species:S:1:pos:R:3:forces:R:3 energy=197.84571837853514 pbc="F F F"
Ho       0.00000000       0.00000000       0.00000000       0.00000000       0.00000000   -1914.60791016
Ho       0.00000000       0.00000000       0.51717172       0.00000000       0.00000000    1914.60791016
2
Properties=species:S:1:pos:R:3:forces:R:3 energy=113.4531097612996 pbc="F F F"
Ho       0.00000000       0.00000000       0.00000000       0.00000000       0.00000000   -1020.82379150
Ho       0.00000000       0.00000000       0.57676768       0.00000000       0.00000000    1020.82379150
2
Properties=species:S:1:pos:R:3:forces:R:3 energy=67.61385351269237 pbc="F F F"
Ho       0.00000000       0.00000000       0.00000000       0.00000000       0.00000000    -566.52252197
Ho       0.00000000       0.00000000       0.63636364       0.00000000       0.00000000     566.52252197
2
Properties=species:S:1:pos:R:3:forces:R:3 energy=41.77799618469139 pbc="F F F"
Ho       0.00000000       0.00000000       0.00000000       0.00000000       0.00000000    -324.86486816
Ho       0.00000000       0.00000000       0.69595960       0.00000000       0.00000000     324.86486816
2
Properties=species:S:1:pos:R:3:forces:R:3 energy=26.78796026264822 pbc="F F F"
Ho       0.00000000       0.00000000       0.00000000       0.00000000       0.00000000    -190.82606506
Ho       0.00000000       0.00000000       0.75555556       0.00000000       0.00000000     190.82606506
2
Properties=species:S:1:pos:R:3:forces:R:3 energy=17.9192451284488 pbc="F F F"
Ho       0.00000000       0.00000000       0.00000000       0.00000000       0.00000000    -113.64009094
Ho       0.00000000       0.00000000       0.81515152       0.00000000       0.00000000     113.64009094
2
Properties=species:S:1:pos:R:3:forces:R:3 energy=12.628084760364613 pbc="F F F"
Ho       0.00000000       0.00000000       0.00000000       0.00000000       0.00000000     -67.79134369
Ho       0.00000000       0.00000000       0.87474747       0.00000000       0.00000000      67.79134369
2
Properties=species:S:1:pos:R:3:forces:R:3 energy=9.48370736871177 pbc="F F F"
Ho       0.00000000       0.00000000       0.00000000       0.00000000       0.00000000     -40.02641296
Ho       0.00000000       0.00000000       0.93434343       0.00000000       0.00000000      40.02641296
2
Properties=species:S:1:pos:R:3:forces:R:3 energy=7.640209067375377 pbc="F F F"
Ho       0.00000000       0.00000000       0.00000000       0.00000000       0.00000000     -23.28936958
Ho       0.00000000       0.00000000       0.99393939       0.00000000       0.00000000      23.28936958
2
Properties=species:S:1:pos:R:3:forces:R:3 energy=6.566114388407338 pbc="F F F"
Ho       0.00000000       0.00000000       0.00000000       0.00000000       0.00000000     -13.73641300
Ho       0.00000000       0.00000000       1.05353535       0.00000000       0.00000000      13.73641300
2
Properties=species:S:1:pos:R:3:forces:R:3 energy=5.904589435037583 pbc="F F F"
Ho       0.00000000       0.00000000       0.00000000       0.00000000       0.00000000      -9.15928745
Ho       0.00000000       0.00000000       1.11313131       0.00000000       0.00000000       9.15928745
2
Properties=species:S:1:pos:R:3:forces:R:3 energy=5.404103108493699 pbc="F F F"
Ho       0.00000000       0.00000000       0.00000000       0.00000000       0.00000000      -8.13317871
Ho       0.00000000       0.00000000       1.17272727       0.00000000       0.00000000       8.13317871
2
Properties=species:S:1:pos:R:3:forces:R:3 energy=4.8856326958019505 pbc="F F F"
Ho       0.00000000       0.00000000       0.00000000       0.00000000       0.00000000      -9.60625076
Ho       0.00000000       0.00000000       1.23232323       0.00000000       0.00000000       9.60625076
2
Properties=species:S:1:pos:R:3:forces:R:3 energy=4.227540915958431 pbc="F F F"
Ho       0.00000000       0.00000000       0.00000000       0.00000000       0.00000000     -12.66211033
Ho       0.00000000       0.00000000       1.29191919       0.00000000       0.00000000      12.66211033
2
Properties=species:S:1:pos:R:3:forces:R:3 energy=3.3664182907828883 pbc="F F F"
Ho       0.00000000       0.00000000       0.00000000       0.00000000       0.00000000     -16.20692635
Ho       0.00000000       0.00000000       1.35151515       0.00000000       0.00000000      16.20692635
2
Properties=species:S:1:pos:R:3:forces:R:3 energy=2.3138322505053237 pbc="F F F"
Ho       0.00000000       0.00000000       0.00000000       0.00000000       0.00000000     -18.85727310
Ho       0.00000000       0.00000000       1.41111111       0.00000000       0.00000000      18.85727310
2
Properties=species:S:1:pos:R:3:forces:R:3 energy=1.1567573169104246 pbc="F F F"
Ho       0.00000000       0.00000000       0.00000000       0.00000000       0.00000000     -19.63928223
Ho       0.00000000       0.00000000       1.47070707       0.00000000       0.00000000      19.63928223
2
Properties=species:S:1:pos:R:3:forces:R:3 energy=0.010424641179680866 pbc="F F F"
Ho       0.00000000       0.00000000       0.00000000       0.00000000       0.00000000     -18.52282906
Ho       0.00000000       0.00000000       1.53030303       0.00000000       0.00000000      18.52282906
2
Properties=species:S:1:pos:R:3:forces:R:3 energy=-1.0068249066356187 pbc="F F F"
Ho       0.00000000       0.00000000       0.00000000       0.00000000       0.00000000     -15.13845634
Ho       0.00000000       0.00000000       1.58989899       0.00000000       0.00000000      15.13845634
2
Properties=species:S:1:pos:R:3:forces:R:3 energy=-1.7284704217063187 pbc="F F F"
Ho       0.00000000       0.00000000       0.00000000       0.00000000       0.00000000      -8.56704330
Ho       0.00000000       0.00000000       1.64949495       0.00000000       0.00000000       8.56704330
2
Properties=species:S:1:pos:R:3:forces:R:3 energy=-1.996730031815518 pbc="F F F"
Ho       0.00000000       0.00000000       0.00000000       0.00000000       0.00000000      -0.52025467
Ho       0.00000000       0.00000000       1.70909091       0.00000000       0.00000000       0.52025467
2
Properties=species:S:1:pos:R:3:forces:R:3 energy=-1.8395639031922906 pbc="F F F"
Ho       0.00000000       0.00000000       0.00000000       0.00000000       0.00000000       5.16201830
Ho       0.00000000       0.00000000       1.76868687       0.00000000       0.00000000      -5.16201830
2
Properties=species:S:1:pos:R:3:forces:R:3 energy=-1.4603178217762693 pbc="F F F"
Ho       0.00000000       0.00000000       0.00000000       0.00000000       0.00000000       6.97596359
Ho       0.00000000       0.00000000       1.82828283       0.00000000       0.00000000      -6.97596359
2
Properties=species:S:1:pos:R:3:forces:R:3 energy=-1.0605474038541045 pbc="F F F"
Ho       0.00000000       0.00000000       0.00000000       0.00000000       0.00000000       6.15645075
Ho       0.00000000       0.00000000       1.88787879       0.00000000       0.00000000      -6.15645075
2
Properties=species:S:1:pos:R:3:forces:R:3 energy=-0.7447483132500677 pbc="F F F"
Ho       0.00000000       0.00000000       0.00000000       0.00000000       0.00000000       4.39128780
Ho       0.00000000       0.00000000       1.94747475       0.00000000       0.00000000      -4.39128780
2
Properties=species:S:1:pos:R:3:forces:R:3 energy=-0.5357919621419381 pbc="F F F"
Ho       0.00000000       0.00000000       0.00000000       0.00000000       0.00000000       2.67099929
Ho       0.00000000       0.00000000       2.00707071       0.00000000       0.00000000      -2.67099929
2
Properties=species:S:1:pos:R:3:forces:R:3 energy=-0.41890708781965547 pbc="F F F"
Ho       0.00000000       0.00000000       0.00000000       0.00000000       0.00000000       1.31597376
Ho       0.00000000       0.00000000       2.06666667       0.00000000       0.00000000      -1.31597376
2
Properties=species:S:1:pos:R:3:forces:R:3 energy=-0.37208072770205286 pbc="F F F"
Ho       0.00000000       0.00000000       0.00000000       0.00000000       0.00000000       0.30477738
Ho       0.00000000       0.00000000       2.12626263       0.00000000       0.00000000      -0.30477738
2
Properties=species:S:1:pos:R:3:forces:R:3 energy=-0.37760509488390176 pbc="F F F"
Ho       0.00000000       0.00000000       0.00000000       0.00000000       0.00000000      -0.45481879
Ho       0.00000000       0.00000000       2.18585859       0.00000000       0.00000000       0.45481879
2
Properties=species:S:1:pos:R:3:forces:R:3 energy=-0.4226986845849957 pbc="F F F"
Ho       0.00000000       0.00000000       0.00000000       0.00000000       0.00000000      -1.03306341
Ho       0.00000000       0.00000000       2.24545455       0.00000000       0.00000000       1.03306341
2
Properties=species:S:1:pos:R:3:forces:R:3 energy=-0.49817757045266853 pbc="F F F"
Ho       0.00000000       0.00000000       0.00000000       0.00000000       0.00000000      -1.48203325
Ho       0.00000000       0.00000000       2.30505051       0.00000000       0.00000000       1.48203325
2
Properties=species:S:1:pos:R:3:forces:R:3 energy=-0.5975481852703408 pbc="F F F"
Ho       0.00000000       0.00000000       0.00000000       0.00000000       0.00000000      -1.83994377
Ho       0.00000000       0.00000000       2.36464646       0.00000000       0.00000000       1.83994377
2
Properties=species:S:1:pos:R:3:forces:R:3 energy=-0.716099766548988 pbc="F F F"
Ho       0.00000000       0.00000000       0.00000000       0.00000000       0.00000000      -2.12764478
Ho       0.00000000       0.00000000       2.42424242       0.00000000       0.00000000       2.12764478
2
Properties=species:S:1:pos:R:3:forces:R:3 energy=-0.8498285872636028 pbc="F F F"
Ho       0.00000000       0.00000000       0.00000000       0.00000000       0.00000000      -2.34874678
Ho       0.00000000       0.00000000       2.48383838       0.00000000       0.00000000       2.34874678
2
Properties=species:S:1:pos:R:3:forces:R:3 energy=-0.9945890829253919 pbc="F F F"
Ho       0.00000000       0.00000000       0.00000000       0.00000000       0.00000000      -2.49617600
Ho       0.00000000       0.00000000       2.54343434       0.00000000       0.00000000       2.49617600
2
Properties=species:S:1:pos:R:3:forces:R:3 energy=-1.1457253503251972 pbc="F F F"
Ho       0.00000000       0.00000000       0.00000000       0.00000000       0.00000000      -2.56189060
Ho       0.00000000       0.00000000       2.60303030       0.00000000       0.00000000       2.56189060
2
Properties=species:S:1:pos:R:3:forces:R:3 energy=-1.2982925407749693 pbc="F F F"
Ho       0.00000000       0.00000000       0.00000000       0.00000000       0.00000000      -2.54473543
Ho       0.00000000       0.00000000       2.66262626       0.00000000       0.00000000       2.54473543
2
Properties=species:S:1:pos:R:3:forces:R:3 energy=-1.4475379888003965 pbc="F F F"
Ho       0.00000000       0.00000000       0.00000000       0.00000000       0.00000000      -2.45217204
Ho       0.00000000       0.00000000       2.72222222       0.00000000       0.00000000       2.45217204
2
Properties=species:S:1:pos:R:3:forces:R:3 energy=-1.5893153958979573 pbc="F F F"
Ho       0.00000000       0.00000000       0.00000000       0.00000000       0.00000000      -2.29632378
Ho       0.00000000       0.00000000       2.78181818       0.00000000       0.00000000       2.29632378
2
Properties=species:S:1:pos:R:3:forces:R:3 energy=-1.7202150249180905 pbc="F F F"
Ho       0.00000000       0.00000000       0.00000000       0.00000000       0.00000000      -2.08876944
Ho       0.00000000       0.00000000       2.84141414       0.00000000       0.00000000       2.08876944
2
Properties=species:S:1:pos:R:3:forces:R:3 energy=-1.837425926972649 pbc="F F F"
Ho       0.00000000       0.00000000       0.00000000       0.00000000       0.00000000      -1.83816004
Ho       0.00000000       0.00000000       2.90101010       0.00000000       0.00000000       1.83816004
2
Properties=species:S:1:pos:R:3:forces:R:3 energy=-1.9385927940848215 pbc="F F F"
Ho       0.00000000       0.00000000       0.00000000       0.00000000       0.00000000      -1.55150974
Ho       0.00000000       0.00000000       2.96060606       0.00000000       0.00000000       1.55150974
2
Properties=species:S:1:pos:R:3:forces:R:3 energy=-2.021798625492898 pbc="F F F"
Ho       0.00000000       0.00000000       0.00000000       0.00000000       0.00000000      -1.23708332
Ho       0.00000000       0.00000000       3.02020202       0.00000000       0.00000000       1.23708332
2
Properties=species:S:1:pos:R:3:forces:R:3 energy=-2.085715664449821 pbc="F F F"
Ho       0.00000000       0.00000000       0.00000000       0.00000000       0.00000000      -0.90626734
Ho       0.00000000       0.00000000       3.07979798       0.00000000       0.00000000       0.90626734
2
Properties=species:S:1:pos:R:3:forces:R:3 energy=-2.129772291228558 pbc="F F F"
Ho       0.00000000       0.00000000       0.00000000       0.00000000       0.00000000      -0.57309783
Ho       0.00000000       0.00000000       3.13939394       0.00000000       0.00000000       0.57309783
2
Properties=species:S:1:pos:R:3:forces:R:3 energy=-2.154264202207694 pbc="F F F"
Ho       0.00000000       0.00000000       0.00000000       0.00000000       0.00000000      -0.25194508
Ho       0.00000000       0.00000000       3.19898990       0.00000000       0.00000000       0.25194508
2
Properties=species:S:1:pos:R:3:forces:R:3 energy=-2.160285968732035 pbc="F F F"
Ho       0.00000000       0.00000000       0.00000000       0.00000000       0.00000000       0.04496741
Ho       0.00000000       0.00000000       3.25858586       0.00000000       0.00000000      -0.04496741
2
Properties=species:S:1:pos:R:3:forces:R:3 energy=-2.149562906000997 pbc="F F F"
Ho       0.00000000       0.00000000       0.00000000       0.00000000       0.00000000       0.30883887
Ho       0.00000000       0.00000000       3.31818182       0.00000000       0.00000000      -0.30883887
2
Properties=species:S:1:pos:R:3:forces:R:3 energy=-2.1242420386593683 pbc="F F F"
Ho       0.00000000       0.00000000       0.00000000       0.00000000       0.00000000       0.53417116
Ho       0.00000000       0.00000000       3.37777778       0.00000000       0.00000000      -0.53417116
2
Properties=species:S:1:pos:R:3:forces:R:3 energy=-2.086720177995104 pbc="F F F"
Ho       0.00000000       0.00000000       0.00000000       0.00000000       0.00000000       0.71797109
Ho       0.00000000       0.00000000       3.43737374       0.00000000       0.00000000      -0.71797109
2
Properties=species:S:1:pos:R:3:forces:R:3 energy=-2.0395144859934518 pbc="F F F"
Ho       0.00000000       0.00000000       0.00000000       0.00000000       0.00000000       0.85908622
Ho       0.00000000       0.00000000       3.49696970       0.00000000       0.00000000      -0.85908622
2
Properties=species:S:1:pos:R:3:forces:R:3 energy=-1.9851627276718655 pbc="F F F"
Ho       0.00000000       0.00000000       0.00000000       0.00000000       0.00000000       0.95801157
Ho       0.00000000       0.00000000       3.55656566       0.00000000       0.00000000      -0.95801157
2
Properties=species:S:1:pos:R:3:forces:R:3 energy=-1.9261199621434288 pbc="F F F"
Ho       0.00000000       0.00000000       0.00000000       0.00000000       0.00000000       1.01708317
Ho       0.00000000       0.00000000       3.61616162       0.00000000       0.00000000      -1.01708317
2
Properties=species:S:1:pos:R:3:forces:R:3 energy=-1.86463918127184 pbc="F F F"
Ho       0.00000000       0.00000000       0.00000000       0.00000000       0.00000000       1.04080570
Ho       0.00000000       0.00000000       3.67575758       0.00000000       0.00000000      -1.04080570
2
Properties=species:S:1:pos:R:3:forces:R:3 energy=-1.8026326007435296 pbc="F F F"
Ho       0.00000000       0.00000000       0.00000000       0.00000000       0.00000000       1.03603256
Ho       0.00000000       0.00000000       3.73535354       0.00000000       0.00000000      -1.03603256
2
Properties=species:S:1:pos:R:3:forces:R:3 energy=-1.7415434922424133 pbc="F F F"
Ho       0.00000000       0.00000000       0.00000000       0.00000000       0.00000000       1.01157987
Ho       0.00000000       0.00000000       3.79494949       0.00000000       0.00000000      -1.01157987
2
Properties=species:S:1:pos:R:3:forces:R:3 energy=-1.6822596553446572 pbc="F F F"
Ho       0.00000000       0.00000000       0.00000000       0.00000000       0.00000000       0.97704279
Ho       0.00000000       0.00000000       3.85454545       0.00000000       0.00000000      -0.97704279
2
Properties=species:S:1:pos:R:3:forces:R:3 energy=-1.6251157838654893 pbc="F F F"
Ho       0.00000000       0.00000000       0.00000000       0.00000000       0.00000000       0.94103986
Ho       0.00000000       0.00000000       3.91414141       0.00000000       0.00000000      -0.94103986
2
Properties=species:S:1:pos:R:3:forces:R:3 energy=-1.5700040540660367 pbc="F F F"
Ho       0.00000000       0.00000000       0.00000000       0.00000000       0.00000000       0.90948403
Ho       0.00000000       0.00000000       3.97373737       0.00000000       0.00000000      -0.90948403
2
Properties=species:S:1:pos:R:3:forces:R:3 energy=-1.5165753954515493 pbc="F F F"
Ho       0.00000000       0.00000000       0.00000000       0.00000000       0.00000000       0.88470513
Ho       0.00000000       0.00000000       4.03333333       0.00000000       0.00000000      -0.88470513
2
Properties=species:S:1:pos:R:3:forces:R:3 energy=-1.464438456243352 pbc="F F F"
Ho       0.00000000       0.00000000       0.00000000       0.00000000       0.00000000       0.86569113
Ho       0.00000000       0.00000000       4.09292929       0.00000000       0.00000000      -0.86569113
2
Properties=species:S:1:pos:R:3:forces:R:3 energy=-1.4133405579126908 pbc="F F F"
Ho       0.00000000       0.00000000       0.00000000       0.00000000       0.00000000       0.84921408
Ho       0.00000000       0.00000000       4.15252525       0.00000000       0.00000000      -0.84921408
2
Properties=species:S:1:pos:R:3:forces:R:3 energy=-1.3632490529370052 pbc="F F F"
Ho       0.00000000       0.00000000       0.00000000       0.00000000       0.00000000       0.83127409
Ho       0.00000000       0.00000000       4.21212121       0.00000000       0.00000000      -0.83127409
2
Properties=species:S:1:pos:R:3:forces:R:3 energy=-1.3143582199317891 pbc="F F F"
Ho       0.00000000       0.00000000       0.00000000       0.00000000       0.00000000       0.80837363
Ho       0.00000000       0.00000000       4.27171717       0.00000000       0.00000000      -0.80837363
2
Properties=species:S:1:pos:R:3:forces:R:3 energy=-1.2670403826741832 pbc="F F F"
Ho       0.00000000       0.00000000       0.00000000       0.00000000       0.00000000       0.77832663
Ho       0.00000000       0.00000000       4.33131313       0.00000000       0.00000000      -0.77832663
2
Properties=species:S:1:pos:R:3:forces:R:3 energy=-1.2217418530644848 pbc="F F F"
Ho       0.00000000       0.00000000       0.00000000       0.00000000       0.00000000       0.74062943
Ho       0.00000000       0.00000000       4.39090909       0.00000000       0.00000000      -0.74062943
2
Properties=species:S:1:pos:R:3:forces:R:3 energy=-1.1788926275054679 pbc="F F F"
Ho       0.00000000       0.00000000       0.00000000       0.00000000       0.00000000       0.69643843
Ho       0.00000000       0.00000000       4.45050505       0.00000000       0.00000000      -0.69643843
2
Properties=species:S:1:pos:R:3:forces:R:3 energy=-1.1388121493751469 pbc="F F F"
Ho       0.00000000       0.00000000       0.00000000       0.00000000       0.00000000       0.64823610
Ho       0.00000000       0.00000000       4.51010101       0.00000000       0.00000000      -0.64823610
2
Properties=species:S:1:pos:R:3:forces:R:3 energy=-1.101642175189826 pbc="F F F"
Ho       0.00000000       0.00000000       0.00000000       0.00000000       0.00000000       0.59930015
Ho       0.00000000       0.00000000       4.56969697       0.00000000       0.00000000      -0.59930015
2
Properties=species:S:1:pos:R:3:forces:R:3 energy=-1.0673257517555337 pbc="F F F"
Ho       0.00000000       0.00000000       0.00000000       0.00000000       0.00000000       0.55306548
Ho       0.00000000       0.00000000       4.62929293       0.00000000       0.00000000      -0.55306548
2
Properties=species:S:1:pos:R:3:forces:R:3 energy=-1.0356085009596774 pbc="F F F"
Ho       0.00000000       0.00000000       0.00000000       0.00000000       0.00000000       0.51251900
Ho       0.00000000       0.00000000       4.68888889       0.00000000       0.00000000      -0.51251900
2
Properties=species:S:1:pos:R:3:forces:R:3 energy=-1.0060826598519943 pbc="F F F"
Ho       0.00000000       0.00000000       0.00000000       0.00000000       0.00000000       0.47972700
Ho       0.00000000       0.00000000       4.74848485       0.00000000       0.00000000      -0.47972700
2
Properties=species:S:1:pos:R:3:forces:R:3 energy=-0.9782573064194339 pbc="F F F"
Ho       0.00000000       0.00000000       0.00000000       0.00000000       0.00000000       0.45552894
Ho       0.00000000       0.00000000       4.80808081       0.00000000       0.00000000      -0.45552894
2
Properties=species:S:1:pos:R:3:forces:R:3 energy=-0.9516252878507018 pbc="F F F"
Ho       0.00000000       0.00000000       0.00000000       0.00000000       0.00000000       0.43944439
Ho       0.00000000       0.00000000       4.86767677       0.00000000       0.00000000      -0.43944439
2
Properties=species:S:1:pos:R:3:forces:R:3 energy=-0.9257501229403904 pbc="F F F"
Ho       0.00000000       0.00000000       0.00000000       0.00000000       0.00000000       0.42976549
Ho       0.00000000       0.00000000       4.92727273       0.00000000       0.00000000      -0.42976549
2
Properties=species:S:1:pos:R:3:forces:R:3 energy=-0.900325274448463 pbc="F F F"
Ho       0.00000000       0.00000000       0.00000000       0.00000000       0.00000000       0.42385012
Ho       0.00000000       0.00000000       4.98686869       0.00000000       0.00000000      -0.42385012
2
Properties=species:S:1:pos:R:3:forces:R:3 energy=-0.875220057348019 pbc="F F F"
Ho       0.00000000       0.00000000       0.00000000       0.00000000       0.00000000       0.41859987
Ho       0.00000000       0.00000000       5.04646465       0.00000000       0.00000000      -0.41859987
2
Properties=species:S:1:pos:R:3:forces:R:3 energy=-0.8504797911286993 pbc="F F F"
Ho       0.00000000       0.00000000       0.00000000       0.00000000       0.00000000       0.41103625
Ho       0.00000000       0.00000000       5.10606061       0.00000000       0.00000000      -0.41103625
2
Properties=species:S:1:pos:R:3:forces:R:3 energy=-0.8263173777027921 pbc="F F F"
Ho       0.00000000       0.00000000       0.00000000       0.00000000       0.00000000       0.39880627
Ho       0.00000000       0.00000000       5.16565657       0.00000000       0.00000000      -0.39880627
2
Properties=species:S:1:pos:R:3:forces:R:3 energy=-0.8030642202720537 pbc="F F F"
Ho       0.00000000       0.00000000       0.00000000       0.00000000       0.00000000       0.38052997
Ho       0.00000000       0.00000000       5.22525253       0.00000000       0.00000000      -0.38052997
2
Properties=species:S:1:pos:R:3:forces:R:3 energy=-0.7810892980590836 pbc="F F F"
Ho       0.00000000       0.00000000       0.00000000       0.00000000       0.00000000       0.35593480
Ho       0.00000000       0.00000000       5.28484848       0.00000000       0.00000000      -0.35593480
2
Properties=species:S:1:pos:R:3:forces:R:3 energy=-0.7607516550697951 pbc="F F F"
Ho       0.00000000       0.00000000       0.00000000       0.00000000       0.00000000       0.32571477
Ho       0.00000000       0.00000000       5.34444444       0.00000000       0.00000000      -0.32571477
2
Properties=species:S:1:pos:R:3:forces:R:3 energy=-0.7423502777548512 pbc="F F F"
Ho       0.00000000       0.00000000       0.00000000       0.00000000       0.00000000       0.29124451
Ho       0.00000000       0.00000000       5.40404040       0.00000000       0.00000000      -0.29124451
2
Properties=species:S:1:pos:R:3:forces:R:3 energy=-0.7260842779390018 pbc="F F F"
Ho       0.00000000       0.00000000       0.00000000       0.00000000       0.00000000       0.25426999
Ho       0.00000000       0.00000000       5.46363636       0.00000000       0.00000000      -0.25426999
2
Properties=species:S:1:pos:R:3:forces:R:3 energy=-0.7120610143079091 pbc="F F F"
Ho       0.00000000       0.00000000       0.00000000       0.00000000       0.00000000       0.21658279
Ho       0.00000000       0.00000000       5.52323232       0.00000000       0.00000000      -0.21658279
2
Properties=species:S:1:pos:R:3:forces:R:3 energy=-0.7002557642382589 pbc="F F F"
Ho       0.00000000       0.00000000       0.00000000       0.00000000       0.00000000       0.17980993
Ho       0.00000000       0.00000000       5.58282828       0.00000000       0.00000000      -0.17980993
2
Properties=species:S:1:pos:R:3:forces:R:3 energy=-0.6905829590998056 pbc="F F F"
Ho       0.00000000       0.00000000       0.00000000       0.00000000       0.00000000       0.14531857
Ho       0.00000000       0.00000000       5.64242424       0.00000000       0.00000000      -0.14531857
2
Properties=species:S:1:pos:R:3:forces:R:3 energy=-0.6828660153856261 pbc="F F F"
Ho       0.00000000       0.00000000       0.00000000       0.00000000       0.00000000       0.11414526
Ho       0.00000000       0.00000000       5.70202020       0.00000000       0.00000000      -0.11414526
2
Properties=species:S:1:pos:R:3:forces:R:3 energy=-0.6768963231355614 pbc="F F F"
Ho       0.00000000       0.00000000       0.00000000       0.00000000       0.00000000       0.08712365
Ho       0.00000000       0.00000000       5.76161616       0.00000000       0.00000000      -0.08712365
2
Properties=species:S:1:pos:R:3:forces:R:3 energy=-0.6723892032714208 pbc="F F F"
Ho       0.00000000       0.00000000       0.00000000       0.00000000       0.00000000       0.06491473
Ho       0.00000000       0.00000000       5.82121212       0.00000000       0.00000000      -0.06491473
2
Properties=species:S:1:pos:R:3:forces:R:3 energy=-0.6690535828428777 pbc="F F F"
Ho       0.00000000       0.00000000       0.00000000       0.00000000       0.00000000       0.04812881
Ho       0.00000000       0.00000000       5.88080808       0.00000000       0.00000000      -0.04812881
2
Properties=species:S:1:pos:R:3:forces:R:3 energy=-0.6665318997062958 pbc="F F F"
Ho       0.00000000       0.00000000       0.00000000       0.00000000       0.00000000       0.03733863
Ho       0.00000000       0.00000000       5.94040404       0.00000000       0.00000000      -0.03733863
2
Properties=species:S:1:pos:R:3:forces:R:3 energy=-0.6644688583583755 pbc="F F F"
Ho       0.00000000       0.00000000       0.00000000       0.00000000       0.00000000       0.03309826
Ho       0.00000000       0.00000000       6.00000000       0.00000000       0.00000000      -0.03309826
