2
Properties=species:S:1:pos:R:3:forces:R:3 energy=9957.242377833047 pbc="F F F"
I        0.00000000       0.00000000       0.00000000       0.00000000       0.00000000 -165978.93750000
I        0.00000000       0.00000000       0.18000000       0.00000000       0.00000000  165978.93750000
2
Properties=species:S:1:pos:R:3:forces:R:3 energy=4076.7577586924217 pbc="F F F"
I        0.00000000       0.00000000       0.00000000       0.00000000       0.00000000  -56746.72656250
I        0.00000000       0.00000000       0.23878788       0.00000000       0.00000000   56746.72656250
2
Properties=species:S:1:pos:R:3:forces:R:3 energy=1908.564765528359 pbc="F F F"
I        0.00000000       0.00000000       0.00000000       0.00000000       0.00000000  -22849.51171875
I        0.00000000       0.00000000       0.29757576       0.00000000       0.00000000   22849.51171875
2
Properties=species:S:1:pos:R:3:forces:R:3 energy=993.8227611401634 pbc="F F F"
I        0.00000000       0.00000000       0.00000000       0.00000000       0.00000000  -10168.59179688
I        0.00000000       0.00000000       0.35636364       0.00000000       0.00000000   10168.59179688
2
Properties=species:S:1:pos:R:3:forces:R:3 energy=574.0342479629053 pbc="F F F"
I        0.00000000       0.00000000       0.00000000       0.00000000       0.00000000   -4831.77636719
I        0.00000000       0.00000000       0.41515152       0.00000000       0.00000000    4831.77636719
2
Properties=species:S:1:pos:R:3:forces:R:3 energy=370.4407116049591 pbc="F F F"
I        0.00000000       0.00000000       0.00000000       0.00000000       0.00000000   -2395.59155273
I        0.00000000       0.00000000       0.47393939       0.00000000       0.00000000    2395.59155273
2
Properties=species:S:1:pos:R:3:forces:R:3 energy=268.37754025625424 pbc="F F F"
I        0.00000000       0.00000000       0.00000000       0.00000000       0.00000000   -1212.67260742
I        0.00000000       0.00000000       0.53272727       0.00000000       0.00000000    1212.67260742
2
Properties=species:S:1:pos:R:3:forces:R:3 energy=216.61247988847032 pbc="F F F"
I        0.00000000       0.00000000       0.00000000       0.00000000       0.00000000    -615.34564209
I        0.00000000       0.00000000       0.59151515       0.00000000       0.00000000     615.34564209
2
Properties=species:S:1:pos:R:3:forces:R:3 energy=190.18392163706343 pbc="F F F"
I        0.00000000       0.00000000       0.00000000       0.00000000       0.00000000    -321.16702271
I        0.00000000       0.00000000       0.65030303       0.00000000       0.00000000     321.16702271
2
Properties=species:S:1:pos:R:3:forces:R:3 energy=175.3597183010758 pbc="F F F"
I        0.00000000       0.00000000       0.00000000       0.00000000       0.00000000    -206.82478333
I        0.00000000       0.00000000       0.70909091       0.00000000       0.00000000     206.82478333
2
Properties=species:S:1:pos:R:3:forces:R:3 energy=163.67781851108057 pbc="F F F"
I        0.00000000       0.00000000       0.00000000       0.00000000       0.00000000    -204.01220703
I        0.00000000       0.00000000       0.76787879       0.00000000       0.00000000     204.01220703
2
Properties=species:S:1:pos:R:3:forces:R:3 energy=150.09233912004504 pbc="F F F"
I        0.00000000       0.00000000       0.00000000       0.00000000       0.00000000    -273.96786499
I        0.00000000       0.00000000       0.82666667       0.00000000       0.00000000     273.96786499
2
Properties=species:S:1:pos:R:3:forces:R:3 energy=132.06740675289717 pbc="F F F"
I        0.00000000       0.00000000       0.00000000       0.00000000       0.00000000    -326.80679321
I        0.00000000       0.00000000       0.88545455       0.00000000       0.00000000     326.80679321
2
Properties=species:S:1:pos:R:3:forces:R:3 energy=113.17187674596664 pbc="F F F"
I        0.00000000       0.00000000       0.00000000       0.00000000       0.00000000    -282.73098755
I        0.00000000       0.00000000       0.94424242       0.00000000       0.00000000     282.73098755
2
Properties=species:S:1:pos:R:3:forces:R:3 energy=101.23857386647329 pbc="F F F"
I        0.00000000       0.00000000       0.00000000       0.00000000       0.00000000    -165.95158386
I        0.00000000       0.00000000       1.00303030       0.00000000       0.00000000     165.95158386
2
Properties=species:S:1:pos:R:3:forces:R:3 energy=93.88914888624565 pbc="F F F"
I        0.00000000       0.00000000       0.00000000       0.00000000       0.00000000     -65.10350800
I        0.00000000       0.00000000       1.06181818       0.00000000       0.00000000      65.10350800
2
Properties=species:S:1:pos:R:3:forces:R:3 energy=88.9515514147407 pbc="F F F"
I        0.00000000       0.00000000       0.00000000       0.00000000       0.00000000    -116.58981323
I        0.00000000       0.00000000       1.12060606       0.00000000       0.00000000     116.58981323
2
Properties=species:S:1:pos:R:3:forces:R:3 energy=80.56983216097676 pbc="F F F"
I        0.00000000       0.00000000       0.00000000       0.00000000       0.00000000    -162.85093689
I        0.00000000       0.00000000       1.17939394       0.00000000       0.00000000     162.85093689
2
Properties=species:S:1:pos:R:3:forces:R:3 energy=70.35699783712792 pbc="F F F"
I        0.00000000       0.00000000       0.00000000       0.00000000       0.00000000    -180.75946045
I        0.00000000       0.00000000       1.23818182       0.00000000       0.00000000     180.75946045
2
Properties=species:S:1:pos:R:3:forces:R:3 energy=59.68881535573569 pbc="F F F"
I        0.00000000       0.00000000       0.00000000       0.00000000       0.00000000    -179.57231140
I        0.00000000       0.00000000       1.29696970       0.00000000       0.00000000     179.57231140
2
Properties=species:S:1:pos:R:3:forces:R:3 energy=49.496177829030586 pbc="F F F"
I        0.00000000       0.00000000       0.00000000       0.00000000       0.00000000    -165.61653137
I        0.00000000       0.00000000       1.35575758       0.00000000       0.00000000     165.61653137
2
Properties=species:S:1:pos:R:3:forces:R:3 energy=40.319036790551756 pbc="F F F"
I        0.00000000       0.00000000       0.00000000       0.00000000       0.00000000    -146.16288757
I        0.00000000       0.00000000       1.41454545       0.00000000       0.00000000     146.16288757
2
Properties=species:S:1:pos:R:3:forces:R:3 energy=32.36671635143903 pbc="F F F"
I        0.00000000       0.00000000       0.00000000       0.00000000       0.00000000    -123.89923859
I        0.00000000       0.00000000       1.47333333       0.00000000       0.00000000     123.89923859
2
Properties=species:S:1:pos:R:3:forces:R:3 energy=25.764027969281766 pbc="F F F"
I        0.00000000       0.00000000       0.00000000       0.00000000       0.00000000    -101.12625122
I        0.00000000       0.00000000       1.53212121       0.00000000       0.00000000     101.12625122
2
Properties=species:S:1:pos:R:3:forces:R:3 energy=20.38641062887296 pbc="F F F"
I        0.00000000       0.00000000       0.00000000       0.00000000       0.00000000     -82.75889587
I        0.00000000       0.00000000       1.59090909       0.00000000       0.00000000      82.75889587
2
Properties=species:S:1:pos:R:3:forces:R:3 energy=15.93458071635674 pbc="F F F"
I        0.00000000       0.00000000       0.00000000       0.00000000       0.00000000     -69.35019684
I        0.00000000       0.00000000       1.64969697       0.00000000       0.00000000      69.35019684
2
Properties=species:S:1:pos:R:3:forces:R:3 energy=12.180343437281191 pbc="F F F"
I        0.00000000       0.00000000       0.00000000       0.00000000       0.00000000     -58.64280319
I        0.00000000       0.00000000       1.70848485       0.00000000       0.00000000      58.64280319
2
Properties=species:S:1:pos:R:3:forces:R:3 energy=9.018332528293266 pbc="F F F"
I        0.00000000       0.00000000       0.00000000       0.00000000       0.00000000     -49.06631088
I        0.00000000       0.00000000       1.76727273       0.00000000       0.00000000      49.06631088
2
Properties=species:S:1:pos:R:3:forces:R:3 energy=6.396316230772099 pbc="F F F"
I        0.00000000       0.00000000       0.00000000       0.00000000       0.00000000     -40.26470184
I        0.00000000       0.00000000       1.82606061       0.00000000       0.00000000      40.26470184
2
Properties=species:S:1:pos:R:3:forces:R:3 energy=4.268594628202772 pbc="F F F"
I        0.00000000       0.00000000       0.00000000       0.00000000       0.00000000     -32.26055527
I        0.00000000       0.00000000       1.88484848       0.00000000       0.00000000      32.26055527
2
Properties=species:S:1:pos:R:3:forces:R:3 energy=2.5853039701380975 pbc="F F F"
I        0.00000000       0.00000000       0.00000000       0.00000000       0.00000000     -25.17803574
I        0.00000000       0.00000000       1.94363636       0.00000000       0.00000000      25.17803574
2
Properties=species:S:1:pos:R:3:forces:R:3 energy=1.2856610915992732 pbc="F F F"
I        0.00000000       0.00000000       0.00000000       0.00000000       0.00000000     -19.24390411
I        0.00000000       0.00000000       2.00242424       0.00000000       0.00000000      19.24390411
2
Properties=species:S:1:pos:R:3:forces:R:3 energy=0.2980189541813366 pbc="F F F"
I        0.00000000       0.00000000       0.00000000       0.00000000       0.00000000     -14.55936337
I        0.00000000       0.00000000       2.06121212       0.00000000       0.00000000      14.55936337
2
Properties=species:S:1:pos:R:3:forces:R:3 energy=-0.44810185557978904 pbc="F F F"
I        0.00000000       0.00000000       0.00000000       0.00000000       0.00000000     -10.99129868
I        0.00000000       0.00000000       2.12000000       0.00000000       0.00000000      10.99129868
2
Properties=species:S:1:pos:R:3:forces:R:3 energy=-1.011534361186938 pbc="F F F"
I        0.00000000       0.00000000       0.00000000       0.00000000       0.00000000      -8.30467033
I        0.00000000       0.00000000       2.17878788       0.00000000       0.00000000       8.30467033
2
Properties=species:S:1:pos:R:3:forces:R:3 energy=-1.4376731920399966 pbc="F F F"
I        0.00000000       0.00000000       0.00000000       0.00000000       0.00000000      -6.29032183
I        0.00000000       0.00000000       2.23757576       0.00000000       0.00000000       6.29032183
2
Properties=species:S:1:pos:R:3:forces:R:3 energy=-1.761091654325463 pbc="F F F"
I        0.00000000       0.00000000       0.00000000       0.00000000       0.00000000      -4.78539276
I        0.00000000       0.00000000       2.29636364       0.00000000       0.00000000       4.78539276
2
Properties=species:S:1:pos:R:3:forces:R:3 energy=-2.0075268552512093 pbc="F F F"
I        0.00000000       0.00000000       0.00000000       0.00000000       0.00000000      -3.64862084
I        0.00000000       0.00000000       2.35515152       0.00000000       0.00000000       3.64862084
2
Properties=species:S:1:pos:R:3:forces:R:3 energy=-2.1947573326315406 pbc="F F F"
I        0.00000000       0.00000000       0.00000000       0.00000000       0.00000000      -2.75134635
I        0.00000000       0.00000000       2.41393939       0.00000000       0.00000000       2.75134635
2
Properties=species:S:1:pos:R:3:forces:R:3 energy=-2.333688190539449 pbc="F F F"
I        0.00000000       0.00000000       0.00000000       0.00000000       0.00000000      -1.99165022
I        0.00000000       0.00000000       2.47272727       0.00000000       0.00000000       1.99165022
2
Properties=species:S:1:pos:R:3:forces:R:3 energy=-2.430414098425664 pbc="F F F"
I        0.00000000       0.00000000       0.00000000       0.00000000       0.00000000      -1.30927622
I        0.00000000       0.00000000       2.53151515       0.00000000       0.00000000       1.30927622
2
Properties=species:S:1:pos:R:3:forces:R:3 energy=-2.4887416341406148 pbc="F F F"
I        0.00000000       0.00000000       0.00000000       0.00000000       0.00000000      -0.68470389
I        0.00000000       0.00000000       2.59030303       0.00000000       0.00000000       0.68470389
2
Properties=species:S:1:pos:R:3:forces:R:3 energy=-2.5121571033552645 pbc="F F F"
I        0.00000000       0.00000000       0.00000000       0.00000000       0.00000000      -0.12348151
I        0.00000000       0.00000000       2.64909091       0.00000000       0.00000000       0.12348151
2
Properties=species:S:1:pos:R:3:forces:R:3 energy=-2.5047307503578695 pbc="F F F"
I        0.00000000       0.00000000       0.00000000       0.00000000       0.00000000       0.36295903
I        0.00000000       0.00000000       2.70787879       0.00000000       0.00000000      -0.36295903
2
Properties=species:S:1:pos:R:3:forces:R:3 energy=-2.4710515739153003 pbc="F F F"
I        0.00000000       0.00000000       0.00000000       0.00000000       0.00000000       0.76962948
I        0.00000000       0.00000000       2.76666667       0.00000000       0.00000000      -0.76962948
2
Properties=species:S:1:pos:R:3:forces:R:3 energy=-2.415730838421044 pbc="F F F"
I        0.00000000       0.00000000       0.00000000       0.00000000       0.00000000       1.10040307
I        0.00000000       0.00000000       2.82545455       0.00000000       0.00000000      -1.10040307
2
Properties=species:S:1:pos:R:3:forces:R:3 energy=-2.342997327846912 pbc="F F F"
I        0.00000000       0.00000000       0.00000000       0.00000000       0.00000000       1.36343920
I        0.00000000       0.00000000       2.88424242       0.00000000       0.00000000      -1.36343920
2
Properties=species:S:1:pos:R:3:forces:R:3 energy=-2.2566175998960176 pbc="F F F"
I        0.00000000       0.00000000       0.00000000       0.00000000       0.00000000       1.56537783
I        0.00000000       0.00000000       2.94303030       0.00000000       0.00000000      -1.56537783
2
Properties=species:S:1:pos:R:3:forces:R:3 energy=-2.1600935779840587 pbc="F F F"
I        0.00000000       0.00000000       0.00000000       0.00000000       0.00000000       1.70871341
I        0.00000000       0.00000000       3.00181818       0.00000000       0.00000000      -1.70871341
2
Properties=species:S:1:pos:R:3:forces:R:3 energy=-2.0568635982901173 pbc="F F F"
I        0.00000000       0.00000000       0.00000000       0.00000000       0.00000000       1.79349232
I        0.00000000       0.00000000       3.06060606       0.00000000       0.00000000      -1.79349232
2
Properties=species:S:1:pos:R:3:forces:R:3 energy=-1.9503447995784557 pbc="F F F"
I        0.00000000       0.00000000       0.00000000       0.00000000       0.00000000       1.82112122
I        0.00000000       0.00000000       3.11939394       0.00000000       0.00000000      -1.82112122
2
Properties=species:S:1:pos:R:3:forces:R:3 energy=-1.8437585085957398 pbc="F F F"
I        0.00000000       0.00000000       0.00000000       0.00000000       0.00000000       1.79707837
I        0.00000000       0.00000000       3.17818182       0.00000000       0.00000000      -1.79707837
2
Properties=species:S:1:pos:R:3:forces:R:3 energy=-1.739879498585601 pbc="F F F"
I        0.00000000       0.00000000       0.00000000       0.00000000       0.00000000       1.73088384
I        0.00000000       0.00000000       3.23696970       0.00000000       0.00000000      -1.73088384
2
Properties=species:S:1:pos:R:3:forces:R:3 energy=-1.6408466810969415 pbc="F F F"
I        0.00000000       0.00000000       0.00000000       0.00000000       0.00000000       1.63419259
I        0.00000000       0.00000000       3.29575758       0.00000000       0.00000000      -1.63419259
2
Properties=species:S:1:pos:R:3:forces:R:3 energy=-1.5481068335356891 pbc="F F F"
I        0.00000000       0.00000000       0.00000000       0.00000000       0.00000000       1.51857841
I        0.00000000       0.00000000       3.35454545       0.00000000       0.00000000      -1.51857841
2
Properties=species:S:1:pos:R:3:forces:R:3 energy=-1.4624703004296213 pbc="F F F"
I        0.00000000       0.00000000       0.00000000       0.00000000       0.00000000       1.39412308
I        0.00000000       0.00000000       3.41333333       0.00000000       0.00000000      -1.39412308
2
Properties=species:S:1:pos:R:3:forces:R:3 energy=-1.384205590456159 pbc="F F F"
I        0.00000000       0.00000000       0.00000000       0.00000000       0.00000000       1.26892149
I        0.00000000       0.00000000       3.47212121       0.00000000       0.00000000      -1.26892149
2
Properties=species:S:1:pos:R:3:forces:R:3 energy=-1.313166867554295 pbc="F F F"
I        0.00000000       0.00000000       0.00000000       0.00000000       0.00000000       1.14925122
I        0.00000000       0.00000000       3.53090909       0.00000000       0.00000000      -1.14925122
2
Properties=species:S:1:pos:R:3:forces:R:3 energy=-1.248878695689474 pbc="F F F"
I        0.00000000       0.00000000       0.00000000       0.00000000       0.00000000       1.03990638
I        0.00000000       0.00000000       3.58969697       0.00000000       0.00000000      -1.03990638
2
Properties=species:S:1:pos:R:3:forces:R:3 energy=-1.1906300955734437 pbc="F F F"
I        0.00000000       0.00000000       0.00000000       0.00000000       0.00000000       0.94420254
I        0.00000000       0.00000000       3.64848485       0.00000000       0.00000000      -0.94420254
2
Properties=species:S:1:pos:R:3:forces:R:3 energy=-1.1375649908042653 pbc="F F F"
I        0.00000000       0.00000000       0.00000000       0.00000000       0.00000000       0.86367404
I        0.00000000       0.00000000       3.70727273       0.00000000       0.00000000      -0.86367404
2
Properties=species:S:1:pos:R:3:forces:R:3 energy=-1.0887927300774363 pbc="F F F"
I        0.00000000       0.00000000       0.00000000       0.00000000       0.00000000       0.79788929
I        0.00000000       0.00000000       3.76606061       0.00000000       0.00000000      -0.79788929
2
Properties=species:S:1:pos:R:3:forces:R:3 energy=-1.0435056932704048 pbc="F F F"
I        0.00000000       0.00000000       0.00000000       0.00000000       0.00000000       0.74465585
I        0.00000000       0.00000000       3.82484848       0.00000000       0.00000000      -0.74465585
2
Properties=species:S:1:pos:R:3:forces:R:3 energy=-1.0010595769155457 pbc="F F F"
I        0.00000000       0.00000000       0.00000000       0.00000000       0.00000000       0.70057160
I        0.00000000       0.00000000       3.88363636       0.00000000       0.00000000      -0.70057160
2
Properties=species:S:1:pos:R:3:forces:R:3 energy=-0.9610305306319328 pbc="F F F"
I        0.00000000       0.00000000       0.00000000       0.00000000       0.00000000       0.66182190
I        0.00000000       0.00000000       3.94242424       0.00000000       0.00000000      -0.66182190
2
Properties=species:S:1:pos:R:3:forces:R:3 energy=-0.9232095406974321 pbc="F F F"
I        0.00000000       0.00000000       0.00000000       0.00000000       0.00000000       0.62496710
I        0.00000000       0.00000000       4.00121212       0.00000000       0.00000000      -0.62496710
2
Properties=species:S:1:pos:R:3:forces:R:3 energy=-0.8875623987340852 pbc="F F F"
I        0.00000000       0.00000000       0.00000000       0.00000000       0.00000000       0.58752334
I        0.00000000       0.00000000       4.06000000       0.00000000       0.00000000      -0.58752334
2
Properties=species:S:1:pos:R:3:forces:R:3 energy=-0.8541673468260677 pbc="F F F"
I        0.00000000       0.00000000       0.00000000       0.00000000       0.00000000       0.54826361
I        0.00000000       0.00000000       4.11878788       0.00000000       0.00000000      -0.54826361
2
Properties=species:S:1:pos:R:3:forces:R:3 energy=-0.8231361693055212 pbc="F F F"
I        0.00000000       0.00000000       0.00000000       0.00000000       0.00000000       0.50716984
I        0.00000000       0.00000000       4.17757576       0.00000000       0.00000000      -0.50716984
2
Properties=species:S:1:pos:R:3:forces:R:3 energy=-0.7945542998359627 pbc="F F F"
I        0.00000000       0.00000000       0.00000000       0.00000000       0.00000000       0.46516532
I        0.00000000       0.00000000       4.23636364       0.00000000       0.00000000      -0.46516532
2
Properties=species:S:1:pos:R:3:forces:R:3 energy=-0.7684328385052875 pbc="F F F"
I        0.00000000       0.00000000       0.00000000       0.00000000       0.00000000       0.42371523
I        0.00000000       0.00000000       4.29515152       0.00000000       0.00000000      -0.42371523
2
Properties=species:S:1:pos:R:3:forces:R:3 energy=-0.7446941174142919 pbc="F F F"
I        0.00000000       0.00000000       0.00000000       0.00000000       0.00000000       0.38439557
I        0.00000000       0.00000000       4.35393939       0.00000000       0.00000000      -0.38439557
2
Properties=species:S:1:pos:R:3:forces:R:3 energy=-0.7231694739619793 pbc="F F F"
I        0.00000000       0.00000000       0.00000000       0.00000000       0.00000000       0.34855214
I        0.00000000       0.00000000       4.41272727       0.00000000       0.00000000      -0.34855214
2
Properties=species:S:1:pos:R:3:forces:R:3 energy=-0.7036252800683286 pbc="F F F"
I        0.00000000       0.00000000       0.00000000       0.00000000       0.00000000       0.31714299
I        0.00000000       0.00000000       4.47151515       0.00000000       0.00000000      -0.31714299
2
Properties=species:S:1:pos:R:3:forces:R:3 energy=-0.6857824814104041 pbc="F F F"
I        0.00000000       0.00000000       0.00000000       0.00000000       0.00000000       0.29074639
I        0.00000000       0.00000000       4.53030303       0.00000000       0.00000000      -0.29074639
2
Properties=species:S:1:pos:R:3:forces:R:3 energy=-0.6693361238191576 pbc="F F F"
I        0.00000000       0.00000000       0.00000000       0.00000000       0.00000000       0.26967853
I        0.00000000       0.00000000       4.58909091       0.00000000       0.00000000      -0.26967853
2
Properties=species:S:1:pos:R:3:forces:R:3 energy=-0.6539671686703182 pbc="F F F"
I        0.00000000       0.00000000       0.00000000       0.00000000       0.00000000       0.25412285
I        0.00000000       0.00000000       4.64787879       0.00000000       0.00000000      -0.25412285
2
Properties=species:S:1:pos:R:3:forces:R:3 energy=-0.6393477349253104 pbc="F F F"
I        0.00000000       0.00000000       0.00000000       0.00000000       0.00000000       0.24415262
I        0.00000000       0.00000000       4.70666667       0.00000000       0.00000000      -0.24415262
2
Properties=species:S:1:pos:R:3:forces:R:3 energy=-0.6251528295749207 pbc="F F F"
I        0.00000000       0.00000000       0.00000000       0.00000000       0.00000000       0.23966637
I        0.00000000       0.00000000       4.76545455       0.00000000       0.00000000      -0.23966637
2
Properties=species:S:1:pos:R:3:forces:R:3 energy=-0.6110686996251461 pbc="F F F"
I        0.00000000       0.00000000       0.00000000       0.00000000       0.00000000       0.24026988
I        0.00000000       0.00000000       4.82424242       0.00000000       0.00000000      -0.24026988
2
Properties=species:S:1:pos:R:3:forces:R:3 energy=-0.596818559712958 pbc="F F F"
I        0.00000000       0.00000000       0.00000000       0.00000000       0.00000000       0.24521080
I        0.00000000       0.00000000       4.88303030       0.00000000       0.00000000      -0.24521080
2
Properties=species:S:1:pos:R:3:forces:R:3 energy=-0.5821741817499007 pbc="F F F"
I        0.00000000       0.00000000       0.00000000       0.00000000       0.00000000       0.25339660
I        0.00000000       0.00000000       4.94181818       0.00000000       0.00000000      -0.25339660
2
Properties=species:S:1:pos:R:3:forces:R:3 energy=-0.5669868677465953 pbc="F F F"
I        0.00000000       0.00000000       0.00000000       0.00000000       0.00000000       0.26345685
I        0.00000000       0.00000000       5.00060606       0.00000000       0.00000000      -0.26345685
2
Properties=species:S:1:pos:R:3:forces:R:3 energy=-0.5511908494453798 pbc="F F F"
I        0.00000000       0.00000000       0.00000000       0.00000000       0.00000000       0.27384710
I        0.00000000       0.00000000       5.05939394       0.00000000       0.00000000      -0.27384710
2
Properties=species:S:1:pos:R:3:forces:R:3 energy=-0.5348146753913064 pbc="F F F"
I        0.00000000       0.00000000       0.00000000       0.00000000       0.00000000       0.28291777
I        0.00000000       0.00000000       5.11818182       0.00000000       0.00000000      -0.28291777
2
Properties=species:S:1:pos:R:3:forces:R:3 energy=-0.5179864056237452 pbc="F F F"
I        0.00000000       0.00000000       0.00000000       0.00000000       0.00000000       0.28900006
I        0.00000000       0.00000000       5.17696970       0.00000000       0.00000000      -0.28900006
2
Properties=species:S:1:pos:R:3:forces:R:3 energy=-0.5009264385281665 pbc="F F F"
I        0.00000000       0.00000000       0.00000000       0.00000000       0.00000000       0.29053789
I        0.00000000       0.00000000       5.23575758       0.00000000       0.00000000      -0.29053789
2
Properties=species:S:1:pos:R:3:forces:R:3 energy=-0.48394187748926315 pbc="F F F"
I        0.00000000       0.00000000       0.00000000       0.00000000       0.00000000       0.28624827
I        0.00000000       0.00000000       5.29454545       0.00000000       0.00000000      -0.28624827
2
Properties=species:S:1:pos:R:3:forces:R:3 energy=-0.467400758217729 pbc="F F F"
I        0.00000000       0.00000000       0.00000000       0.00000000       0.00000000       0.27530232
I        0.00000000       0.00000000       5.35333333       0.00000000       0.00000000      -0.27530232
2
Properties=species:S:1:pos:R:3:forces:R:3 energy=-0.45170596834236815 pbc="F F F"
I        0.00000000       0.00000000       0.00000000       0.00000000       0.00000000       0.25748572
I        0.00000000       0.00000000       5.41212121       0.00000000       0.00000000      -0.25748572
2
Properties=species:S:1:pos:R:3:forces:R:3 energy=-0.43725084303368106 pbc="F F F"
I        0.00000000       0.00000000       0.00000000       0.00000000       0.00000000       0.23331590
I        0.00000000       0.00000000       5.47090909       0.00000000       0.00000000      -0.23331590
2
Properties=species:S:1:pos:R:3:forces:R:3 energy=-0.4243762594550804 pbc="F F F"
I        0.00000000       0.00000000       0.00000000       0.00000000       0.00000000       0.20390865
I        0.00000000       0.00000000       5.52969697       0.00000000       0.00000000      -0.20390865
2
Properties=species:S:1:pos:R:3:forces:R:3 energy=-0.4133452908256501 pbc="F F F"
I        0.00000000       0.00000000       0.00000000       0.00000000       0.00000000       0.17094959
I        0.00000000       0.00000000       5.58848485       0.00000000       0.00000000      -0.17094959
2
Properties=species:S:1:pos:R:3:forces:R:3 energy=-0.40430717441244346 pbc="F F F"
I        0.00000000       0.00000000       0.00000000       0.00000000       0.00000000       0.13645197
I        0.00000000       0.00000000       5.64727273       0.00000000       0.00000000      -0.13645197
2
Properties=species:S:1:pos:R:3:forces:R:3 energy=-0.39729277128205825 pbc="F F F"
I        0.00000000       0.00000000       0.00000000       0.00000000       0.00000000       0.10255263
I        0.00000000       0.00000000       5.70606061       0.00000000       0.00000000      -0.10255263
2
Properties=species:S:1:pos:R:3:forces:R:3 energy=-0.392191709003309 pbc="F F F"
I        0.00000000       0.00000000       0.00000000       0.00000000       0.00000000       0.07130794
I        0.00000000       0.00000000       5.76484848       0.00000000       0.00000000      -0.07130794
2
Properties=species:S:1:pos:R:3:forces:R:3 energy=-0.38881551592932073 pbc="F F F"
I        0.00000000       0.00000000       0.00000000       0.00000000       0.00000000       0.04460624
I        0.00000000       0.00000000       5.82363636       0.00000000       0.00000000      -0.04460624
2
Properties=species:S:1:pos:R:3:forces:R:3 energy=-0.3868350070181597 pbc="F F F"
I        0.00000000       0.00000000       0.00000000       0.00000000       0.00000000       0.02402657
I        0.00000000       0.00000000       5.88242424       0.00000000       0.00000000      -0.02402657
2
Properties=species:S:1:pos:R:3:forces:R:3 energy=-0.38584616349238704 pbc="F F F"
I        0.00000000       0.00000000       0.00000000       0.00000000       0.00000000       0.01081978
I        0.00000000       0.00000000       5.94121212       0.00000000       0.00000000      -0.01081978
2
Properties=species:S:1:pos:R:3:forces:R:3 energy=-0.38539647452824943 pbc="F F F"
I        0.00000000       0.00000000       0.00000000       0.00000000       0.00000000       0.00598860
I        0.00000000       0.00000000       6.00000000       0.00000000       0.00000000      -0.00598860
