2
Properties=species:S:1:pos:R:3:forces:R:3 energy=8835.854538282229 pbc="F F F"
In       0.00000000       0.00000000       0.00000000       0.00000000       0.00000000 -147411.60937500
In       0.00000000       0.00000000       0.18000000       0.00000000       0.00000000  147411.60937500
2
Properties=species:S:1:pos:R:3:forces:R:3 energy=3596.326462110353 pbc="F F F"
In       0.00000000       0.00000000       0.00000000       0.00000000       0.00000000  -50792.35937500
In       0.00000000       0.00000000       0.23878788       0.00000000       0.00000000   50792.35937500
2
Properties=species:S:1:pos:R:3:forces:R:3 energy=1648.902145704103 pbc="F F F"
In       0.00000000       0.00000000       0.00000000       0.00000000       0.00000000  -20623.93750000
In       0.00000000       0.00000000       0.29757576       0.00000000       0.00000000   20623.93750000
2
Properties=species:S:1:pos:R:3:forces:R:3 energy=819.7977145517592 pbc="F F F"
In       0.00000000       0.00000000       0.00000000       0.00000000       0.00000000   -9271.30371094
In       0.00000000       0.00000000       0.35636364       0.00000000       0.00000000    9271.30371094
2
Properties=species:S:1:pos:R:3:forces:R:3 energy=434.87031587645424 pbc="F F F"
In       0.00000000       0.00000000       0.00000000       0.00000000       0.00000000   -4467.77636719
In       0.00000000       0.00000000       0.41515152       0.00000000       0.00000000    4467.77636719
2
Properties=species:S:1:pos:R:3:forces:R:3 energy=244.84555086814146 pbc="F F F"
In       0.00000000       0.00000000       0.00000000       0.00000000       0.00000000   -2268.22509766
In       0.00000000       0.00000000       0.47393939       0.00000000       0.00000000    2268.22509766
2
Properties=species:S:1:pos:R:3:forces:R:3 energy=146.53675876972275 pbc="F F F"
In       0.00000000       0.00000000       0.00000000       0.00000000       0.00000000   -1198.75659180
In       0.00000000       0.00000000       0.53272727       0.00000000       0.00000000    1198.75659180
2
Properties=species:S:1:pos:R:3:forces:R:3 energy=93.88310278920595 pbc="F F F"
In       0.00000000       0.00000000       0.00000000       0.00000000       0.00000000    -650.74890137
In       0.00000000       0.00000000       0.59151515       0.00000000       0.00000000     650.74890137
2
Properties=species:S:1:pos:R:3:forces:R:3 energy=65.15989726714922 pbc="F F F"
In       0.00000000       0.00000000       0.00000000       0.00000000       0.00000000    -355.44833374
In       0.00000000       0.00000000       0.65030303       0.00000000       0.00000000     355.44833374
2
Properties=species:S:1:pos:R:3:forces:R:3 energy=49.5941433969059 pbc="F F F"
In       0.00000000       0.00000000       0.00000000       0.00000000       0.00000000    -189.61845398
In       0.00000000       0.00000000       0.70909091       0.00000000       0.00000000     189.61845398
2
Properties=species:S:1:pos:R:3:forces:R:3 energy=41.46755658421371 pbc="F F F"
In       0.00000000       0.00000000       0.00000000       0.00000000       0.00000000     -96.04481506
In       0.00000000       0.00000000       0.76787879       0.00000000       0.00000000      96.04481506
2
Properties=species:S:1:pos:R:3:forces:R:3 energy=37.42598035077113 pbc="F F F"
In       0.00000000       0.00000000       0.00000000       0.00000000       0.00000000     -47.58733749
In       0.00000000       0.00000000       0.82666667       0.00000000       0.00000000      47.58733749
2
Properties=species:S:1:pos:R:3:forces:R:3 energy=35.25866794728054 pbc="F F F"
In       0.00000000       0.00000000       0.00000000       0.00000000       0.00000000     -30.52096176
In       0.00000000       0.00000000       0.88545455       0.00000000       0.00000000      30.52096176
2
Properties=species:S:1:pos:R:3:forces:R:3 energy=33.44556934075295 pbc="F F F"
In       0.00000000       0.00000000       0.00000000       0.00000000       0.00000000     -33.25851822
In       0.00000000       0.00000000       0.94424242       0.00000000       0.00000000      33.25851822
2
Properties=species:S:1:pos:R:3:forces:R:3 energy=31.23061347533613 pbc="F F F"
In       0.00000000       0.00000000       0.00000000       0.00000000       0.00000000     -42.40199661
In       0.00000000       0.00000000       1.00303030       0.00000000       0.00000000      42.40199661
2
Properties=species:S:1:pos:R:3:forces:R:3 energy=28.446689930089626 pbc="F F F"
In       0.00000000       0.00000000       0.00000000       0.00000000       0.00000000     -52.33058929
In       0.00000000       0.00000000       1.06181818       0.00000000       0.00000000      52.33058929
2
Properties=species:S:1:pos:R:3:forces:R:3 energy=25.09488975911655 pbc="F F F"
In       0.00000000       0.00000000       0.00000000       0.00000000       0.00000000     -61.32269287
In       0.00000000       0.00000000       1.12060606       0.00000000       0.00000000      61.32269287
2
Properties=species:S:1:pos:R:3:forces:R:3 energy=21.31011786188097 pbc="F F F"
In       0.00000000       0.00000000       0.00000000       0.00000000       0.00000000     -66.59738159
In       0.00000000       0.00000000       1.17939394       0.00000000       0.00000000      66.59738159
2
Properties=species:S:1:pos:R:3:forces:R:3 energy=17.378142810650452 pbc="F F F"
In       0.00000000       0.00000000       0.00000000       0.00000000       0.00000000     -66.15310669
In       0.00000000       0.00000000       1.23818182       0.00000000       0.00000000      66.15310669
2
Properties=species:S:1:pos:R:3:forces:R:3 energy=13.645548028839846 pbc="F F F"
In       0.00000000       0.00000000       0.00000000       0.00000000       0.00000000     -59.98228455
In       0.00000000       0.00000000       1.29696970       0.00000000       0.00000000      59.98228455
2
Properties=species:S:1:pos:R:3:forces:R:3 energy=10.402971562447583 pbc="F F F"
In       0.00000000       0.00000000       0.00000000       0.00000000       0.00000000     -49.91481400
In       0.00000000       0.00000000       1.35575758       0.00000000       0.00000000      49.91481400
2
Properties=species:S:1:pos:R:3:forces:R:3 energy=7.791453831673122 pbc="F F F"
In       0.00000000       0.00000000       0.00000000       0.00000000       0.00000000     -39.10125732
In       0.00000000       0.00000000       1.41454545       0.00000000       0.00000000      39.10125732
2
Properties=species:S:1:pos:R:3:forces:R:3 energy=5.760117846785797 pbc="F F F"
In       0.00000000       0.00000000       0.00000000       0.00000000       0.00000000     -30.50261688
In       0.00000000       0.00000000       1.47333333       0.00000000       0.00000000      30.50261688
2
Properties=species:S:1:pos:R:3:forces:R:3 energy=4.153371277100543 pbc="F F F"
In       0.00000000       0.00000000       0.00000000       0.00000000       0.00000000     -24.47370911
In       0.00000000       0.00000000       1.53212121       0.00000000       0.00000000      24.47370911
2
Properties=species:S:1:pos:R:3:forces:R:3 energy=2.8614592259542717 pbc="F F F"
In       0.00000000       0.00000000       0.00000000       0.00000000       0.00000000     -19.56635475
In       0.00000000       0.00000000       1.59090909       0.00000000       0.00000000      19.56635475
2
Properties=species:S:1:pos:R:3:forces:R:3 energy=1.8445116992979154 pbc="F F F"
In       0.00000000       0.00000000       0.00000000       0.00000000       0.00000000     -15.11716461
In       0.00000000       0.00000000       1.64969697       0.00000000       0.00000000      15.11716461
2
Properties=species:S:1:pos:R:3:forces:R:3 energy=1.0699643600292825 pbc="F F F"
In       0.00000000       0.00000000       0.00000000       0.00000000       0.00000000     -11.38234615
In       0.00000000       0.00000000       1.70848485       0.00000000       0.00000000      11.38234615
2
Properties=species:S:1:pos:R:3:forces:R:3 energy=0.4872322538346576 pbc="F F F"
In       0.00000000       0.00000000       0.00000000       0.00000000       0.00000000      -8.60457706
In       0.00000000       0.00000000       1.76727273       0.00000000       0.00000000       8.60457706
2
Properties=species:S:1:pos:R:3:forces:R:3 energy=0.040816638491974325 pbc="F F F"
In       0.00000000       0.00000000       0.00000000       0.00000000       0.00000000      -6.71235895
In       0.00000000       0.00000000       1.82606061       0.00000000       0.00000000       6.71235895
2
Properties=species:S:1:pos:R:3:forces:R:3 energy=-0.3146746203032081 pbc="F F F"
In       0.00000000       0.00000000       0.00000000       0.00000000       0.00000000      -5.46877575
In       0.00000000       0.00000000       1.88484848       0.00000000       0.00000000       5.46877575
2
Properties=species:S:1:pos:R:3:forces:R:3 energy=-0.6102778528186004 pbc="F F F"
In       0.00000000       0.00000000       0.00000000       0.00000000       0.00000000      -4.64073944
In       0.00000000       0.00000000       1.94363636       0.00000000       0.00000000       4.64073944
2
Properties=species:S:1:pos:R:3:forces:R:3 energy=-0.8650476541256978 pbc="F F F"
In       0.00000000       0.00000000       0.00000000       0.00000000       0.00000000      -4.05619335
In       0.00000000       0.00000000       2.00242424       0.00000000       0.00000000       4.05619335
2
Properties=species:S:1:pos:R:3:forces:R:3 energy=-1.0896774864672616 pbc="F F F"
In       0.00000000       0.00000000       0.00000000       0.00000000       0.00000000      -3.60036087
In       0.00000000       0.00000000       2.06121212       0.00000000       0.00000000       3.60036087
2
Properties=species:S:1:pos:R:3:forces:R:3 energy=-1.2895456021502751 pbc="F F F"
In       0.00000000       0.00000000       0.00000000       0.00000000       0.00000000      -3.20617485
In       0.00000000       0.00000000       2.12000000       0.00000000       0.00000000       3.20617485
2
Properties=species:S:1:pos:R:3:forces:R:3 energy=-1.4672584961156212 pbc="F F F"
In       0.00000000       0.00000000       0.00000000       0.00000000       0.00000000      -2.84397793
In       0.00000000       0.00000000       2.17878788       0.00000000       0.00000000       2.84397793
2
Properties=species:S:1:pos:R:3:forces:R:3 energy=-1.6243916475014355 pbc="F F F"
In       0.00000000       0.00000000       0.00000000       0.00000000       0.00000000      -2.50554466
In       0.00000000       0.00000000       2.23757576       0.00000000       0.00000000       2.50554466
2
Properties=species:S:1:pos:R:3:forces:R:3 energy=-1.7622538674329504 pbc="F F F"
In       0.00000000       0.00000000       0.00000000       0.00000000       0.00000000      -2.18762040
In       0.00000000       0.00000000       2.29636364       0.00000000       0.00000000       2.18762040
2
Properties=species:S:1:pos:R:3:forces:R:3 energy=-1.8818752505487366 pbc="F F F"
In       0.00000000       0.00000000       0.00000000       0.00000000       0.00000000      -1.88356233
In       0.00000000       0.00000000       2.35515152       0.00000000       0.00000000       1.88356233
2
Properties=species:S:1:pos:R:3:forces:R:3 energy=-1.98382117366296 pbc="F F F"
In       0.00000000       0.00000000       0.00000000       0.00000000       0.00000000      -1.58510840
In       0.00000000       0.00000000       2.41393939       0.00000000       0.00000000       1.58510840
2
Properties=species:S:1:pos:R:3:forces:R:3 energy=-2.068273936289743 pbc="F F F"
In       0.00000000       0.00000000       0.00000000       0.00000000       0.00000000      -1.28833008
In       0.00000000       0.00000000       2.47272727       0.00000000       0.00000000       1.28833008
2
Properties=species:S:1:pos:R:3:forces:R:3 energy=-2.135389059370651 pbc="F F F"
In       0.00000000       0.00000000       0.00000000       0.00000000       0.00000000      -0.99635917
In       0.00000000       0.00000000       2.53151515       0.00000000       0.00000000       0.99635917
2
Properties=species:S:1:pos:R:3:forces:R:3 energy=-2.1856691667884123 pbc="F F F"
In       0.00000000       0.00000000       0.00000000       0.00000000       0.00000000      -0.71706539
In       0.00000000       0.00000000       2.59030303       0.00000000       0.00000000       0.71706539
2
Properties=species:S:1:pos:R:3:forces:R:3 energy=-2.220115695610957 pbc="F F F"
In       0.00000000       0.00000000       0.00000000       0.00000000       0.00000000      -0.45894584
In       0.00000000       0.00000000       2.64909091       0.00000000       0.00000000       0.45894584
2
Properties=species:S:1:pos:R:3:forces:R:3 energy=-2.2401665337938725 pbc="F F F"
In       0.00000000       0.00000000       0.00000000       0.00000000       0.00000000      -0.22806631
In       0.00000000       0.00000000       2.70787879       0.00000000       0.00000000       0.22806631
2
Properties=species:S:1:pos:R:3:forces:R:3 energy=-2.247512609768808 pbc="F F F"
In       0.00000000       0.00000000       0.00000000       0.00000000       0.00000000      -0.02677416
In       0.00000000       0.00000000       2.76666667       0.00000000       0.00000000       0.02677416
2
Properties=species:S:1:pos:R:3:forces:R:3 energy=-2.2438700673159993 pbc="F F F"
In       0.00000000       0.00000000       0.00000000       0.00000000       0.00000000       0.14624919
In       0.00000000       0.00000000       2.82545455       0.00000000       0.00000000      -0.14624919
2
Properties=species:S:1:pos:R:3:forces:R:3 energy=-2.2307944527918675 pbc="F F F"
In       0.00000000       0.00000000       0.00000000       0.00000000       0.00000000       0.29496226
In       0.00000000       0.00000000       2.88424242       0.00000000       0.00000000      -0.29496226
2
Properties=species:S:1:pos:R:3:forces:R:3 energy=-2.209568633886184 pbc="F F F"
In       0.00000000       0.00000000       0.00000000       0.00000000       0.00000000       0.42431572
In       0.00000000       0.00000000       2.94303030       0.00000000       0.00000000      -0.42431572
2
Properties=species:S:1:pos:R:3:forces:R:3 energy=-2.1812003852620414 pbc="F F F"
In       0.00000000       0.00000000       0.00000000       0.00000000       0.00000000       0.53855127
In       0.00000000       0.00000000       3.00181818       0.00000000       0.00000000      -0.53855127
2
Properties=species:S:1:pos:R:3:forces:R:3 energy=-2.1464955027124692 pbc="F F F"
In       0.00000000       0.00000000       0.00000000       0.00000000       0.00000000       0.64010602
In       0.00000000       0.00000000       3.06060606       0.00000000       0.00000000      -0.64010602
2
Properties=species:S:1:pos:R:3:forces:R:3 energy=-2.106178100869334 pbc="F F F"
In       0.00000000       0.00000000       0.00000000       0.00000000       0.00000000       0.72941965
In       0.00000000       0.00000000       3.11939394       0.00000000       0.00000000      -0.72941965
2
Properties=species:S:1:pos:R:3:forces:R:3 energy=-2.0609918704482704 pbc="F F F"
In       0.00000000       0.00000000       0.00000000       0.00000000       0.00000000       0.80549765
In       0.00000000       0.00000000       3.17818182       0.00000000       0.00000000      -0.80549765
2
Properties=species:S:1:pos:R:3:forces:R:3 energy=-2.0117614558820947 pbc="F F F"
In       0.00000000       0.00000000       0.00000000       0.00000000       0.00000000       0.86678523
In       0.00000000       0.00000000       3.23696970       0.00000000       0.00000000      -0.86678523
2
Properties=species:S:1:pos:R:3:forces:R:3 energy=-1.9593915125885992 pbc="F F F"
In       0.00000000       0.00000000       0.00000000       0.00000000       0.00000000       0.91217482
In       0.00000000       0.00000000       3.29575758       0.00000000       0.00000000      -0.91217482
2
Properties=species:S:1:pos:R:3:forces:R:3 energy=-1.9048196370876687 pbc="F F F"
In       0.00000000       0.00000000       0.00000000       0.00000000       0.00000000       0.94190150
In       0.00000000       0.00000000       3.35454545       0.00000000       0.00000000      -0.94190150
2
Properties=species:S:1:pos:R:3:forces:R:3 energy=-1.848919973077427 pbc="F F F"
In       0.00000000       0.00000000       0.00000000       0.00000000       0.00000000       0.95771939
In       0.00000000       0.00000000       3.41333333       0.00000000       0.00000000      -0.95771939
2
Properties=species:S:1:pos:R:3:forces:R:3 energy=-1.7924422228035533 pbc="F F F"
In       0.00000000       0.00000000       0.00000000       0.00000000       0.00000000       0.96192771
In       0.00000000       0.00000000       3.47212121       0.00000000       0.00000000      -0.96192771
2
Properties=species:S:1:pos:R:3:forces:R:3 energy=-1.7360084862389906 pbc="F F F"
In       0.00000000       0.00000000       0.00000000       0.00000000       0.00000000       0.95658064
In       0.00000000       0.00000000       3.53090909       0.00000000       0.00000000      -0.95658064
2
Properties=species:S:1:pos:R:3:forces:R:3 energy=-1.6801146186643212 pbc="F F F"
In       0.00000000       0.00000000       0.00000000       0.00000000       0.00000000       0.94394153
In       0.00000000       0.00000000       3.58969697       0.00000000       0.00000000      -0.94394153
2
Properties=species:S:1:pos:R:3:forces:R:3 energy=-1.6251115217843495 pbc="F F F"
In       0.00000000       0.00000000       0.00000000       0.00000000       0.00000000       0.92679757
In       0.00000000       0.00000000       3.64848485       0.00000000       0.00000000      -0.92679757
2
Properties=species:S:1:pos:R:3:forces:R:3 energy=-1.5711814443370247 pbc="F F F"
In       0.00000000       0.00000000       0.00000000       0.00000000       0.00000000       0.90782619
In       0.00000000       0.00000000       3.70727273       0.00000000       0.00000000      -0.90782619
2
Properties=species:S:1:pos:R:3:forces:R:3 energy=-1.5183731093125115 pbc="F F F"
In       0.00000000       0.00000000       0.00000000       0.00000000       0.00000000       0.88876653
In       0.00000000       0.00000000       3.76606061       0.00000000       0.00000000      -0.88876653
2
Properties=species:S:1:pos:R:3:forces:R:3 energy=-1.4666761038285412 pbc="F F F"
In       0.00000000       0.00000000       0.00000000       0.00000000       0.00000000       0.87004769
In       0.00000000       0.00000000       3.82484848       0.00000000       0.00000000      -0.87004769
2
Properties=species:S:1:pos:R:3:forces:R:3 energy=-1.416085029903332 pbc="F F F"
In       0.00000000       0.00000000       0.00000000       0.00000000       0.00000000       0.85089177
In       0.00000000       0.00000000       3.88363636       0.00000000       0.00000000      -0.85089177
2
Properties=species:S:1:pos:R:3:forces:R:3 energy=-1.3666707199351202 pbc="F F F"
In       0.00000000       0.00000000       0.00000000       0.00000000       0.00000000       0.82972944
In       0.00000000       0.00000000       3.94242424       0.00000000       0.00000000      -0.82972944
2
Properties=species:S:1:pos:R:3:forces:R:3 energy=-1.3186050005724972 pbc="F F F"
In       0.00000000       0.00000000       0.00000000       0.00000000       0.00000000       0.80473745
In       0.00000000       0.00000000       4.00121212       0.00000000       0.00000000      -0.80473745
2
Properties=species:S:1:pos:R:3:forces:R:3 energy=-1.2721606287022338 pbc="F F F"
In       0.00000000       0.00000000       0.00000000       0.00000000       0.00000000       0.77431250
In       0.00000000       0.00000000       4.06000000       0.00000000       0.00000000      -0.77431250
2
Properties=species:S:1:pos:R:3:forces:R:3 energy=-1.2276904328315816 pbc="F F F"
In       0.00000000       0.00000000       0.00000000       0.00000000       0.00000000       0.73749113
In       0.00000000       0.00000000       4.11878788       0.00000000       0.00000000      -0.73749113
2
Properties=species:S:1:pos:R:3:forces:R:3 energy=-1.185576473582193 pbc="F F F"
In       0.00000000       0.00000000       0.00000000       0.00000000       0.00000000       0.69419158
In       0.00000000       0.00000000       4.17757576       0.00000000       0.00000000      -0.69419158
2
Properties=species:S:1:pos:R:3:forces:R:3 energy=-1.1461794739448086 pbc="F F F"
In       0.00000000       0.00000000       0.00000000       0.00000000       0.00000000       0.64532018
In       0.00000000       0.00000000       4.23636364       0.00000000       0.00000000      -0.64532018
2
Properties=species:S:1:pos:R:3:forces:R:3 energy=-1.109776246241614 pbc="F F F"
In       0.00000000       0.00000000       0.00000000       0.00000000       0.00000000       0.59268945
In       0.00000000       0.00000000       4.29515152       0.00000000       0.00000000      -0.59268945
2
Properties=species:S:1:pos:R:3:forces:R:3 energy=-1.076519727671923 pbc="F F F"
In       0.00000000       0.00000000       0.00000000       0.00000000       0.00000000       0.53876001
In       0.00000000       0.00000000       4.35393939       0.00000000       0.00000000      -0.53876001
2
Properties=species:S:1:pos:R:3:forces:R:3 energy=-1.046404748239143 pbc="F F F"
In       0.00000000       0.00000000       0.00000000       0.00000000       0.00000000       0.48621440
In       0.00000000       0.00000000       4.41272727       0.00000000       0.00000000      -0.48621440
2
Properties=species:S:1:pos:R:3:forces:R:3 energy=-1.0192770728178007 pbc="F F F"
In       0.00000000       0.00000000       0.00000000       0.00000000       0.00000000       0.43749109
In       0.00000000       0.00000000       4.47151515       0.00000000       0.00000000      -0.43749109
2
Properties=species:S:1:pos:R:3:forces:R:3 energy=-0.9948550382235715 pbc="F F F"
In       0.00000000       0.00000000       0.00000000       0.00000000       0.00000000       0.39439604
In       0.00000000       0.00000000       4.53030303       0.00000000       0.00000000      -0.39439604
2
Properties=species:S:1:pos:R:3:forces:R:3 energy=-0.9727765743583867 pbc="F F F"
In       0.00000000       0.00000000       0.00000000       0.00000000       0.00000000       0.35786438
In       0.00000000       0.00000000       4.58909091       0.00000000       0.00000000      -0.35786438
2
Properties=species:S:1:pos:R:3:forces:R:3 energy=-0.9526486190447987 pbc="F F F"
In       0.00000000       0.00000000       0.00000000       0.00000000       0.00000000       0.32798919
In       0.00000000       0.00000000       4.64787879       0.00000000       0.00000000      -0.32798919
2
Properties=species:S:1:pos:R:3:forces:R:3 energy=-0.9340929957634766 pbc="F F F"
In       0.00000000       0.00000000       0.00000000       0.00000000       0.00000000       0.30420008
In       0.00000000       0.00000000       4.70666667       0.00000000       0.00000000      -0.30420008
2
Properties=species:S:1:pos:R:3:forces:R:3 energy=-0.9167807657674488 pbc="F F F"
In       0.00000000       0.00000000       0.00000000       0.00000000       0.00000000       0.28555468
In       0.00000000       0.00000000       4.76545455       0.00000000       0.00000000      -0.28555468
2
Properties=species:S:1:pos:R:3:forces:R:3 energy=-0.9004387382436472 pbc="F F F"
In       0.00000000       0.00000000       0.00000000       0.00000000       0.00000000       0.27098769
In       0.00000000       0.00000000       4.82424242       0.00000000       0.00000000      -0.27098769
2
Properties=species:S:1:pos:R:3:forces:R:3 energy=-0.884859899957791 pbc="F F F"
In       0.00000000       0.00000000       0.00000000       0.00000000       0.00000000       0.25949320
In       0.00000000       0.00000000       4.88303030       0.00000000       0.00000000      -0.25949320
2
Properties=species:S:1:pos:R:3:forces:R:3 energy=-0.8698858560588036 pbc="F F F"
In       0.00000000       0.00000000       0.00000000       0.00000000       0.00000000       0.25019705
In       0.00000000       0.00000000       4.94181818       0.00000000       0.00000000      -0.25019705
2
Properties=species:S:1:pos:R:3:forces:R:3 energy=-0.8554135432289168 pbc="F F F"
In       0.00000000       0.00000000       0.00000000       0.00000000       0.00000000       0.24232781
In       0.00000000       0.00000000       5.00060606       0.00000000       0.00000000      -0.24232781
2
Properties=species:S:1:pos:R:3:forces:R:3 energy=-0.8413796158505855 pbc="F F F"
In       0.00000000       0.00000000       0.00000000       0.00000000       0.00000000       0.23516992
In       0.00000000       0.00000000       5.05939394       0.00000000       0.00000000      -0.23516992
2
Properties=species:S:1:pos:R:3:forces:R:3 energy=-0.827762957737083 pbc="F F F"
In       0.00000000       0.00000000       0.00000000       0.00000000       0.00000000       0.22801556
In       0.00000000       0.00000000       5.11818182       0.00000000       0.00000000      -0.22801556
2
Properties=species:S:1:pos:R:3:forces:R:3 energy=-0.8145857233378855 pbc="F F F"
In       0.00000000       0.00000000       0.00000000       0.00000000       0.00000000       0.22012907
In       0.00000000       0.00000000       5.17696970       0.00000000       0.00000000      -0.22012907
2
Properties=species:S:1:pos:R:3:forces:R:3 energy=-0.801910462460523 pbc="F F F"
In       0.00000000       0.00000000       0.00000000       0.00000000       0.00000000       0.21081753
In       0.00000000       0.00000000       5.23575758       0.00000000       0.00000000      -0.21081753
2
Properties=species:S:1:pos:R:3:forces:R:3 energy=-0.7898393131479999 pbc="F F F"
In       0.00000000       0.00000000       0.00000000       0.00000000       0.00000000       0.19948675
In       0.00000000       0.00000000       5.29454545       0.00000000       0.00000000      -0.19948675
2
Properties=species:S:1:pos:R:3:forces:R:3 energy=-0.7785024183708406 pbc="F F F"
In       0.00000000       0.00000000       0.00000000       0.00000000       0.00000000       0.18575463
In       0.00000000       0.00000000       5.35333333       0.00000000       0.00000000      -0.18575463
2
Properties=species:S:1:pos:R:3:forces:R:3 energy=-0.7680468494825864 pbc="F F F"
In       0.00000000       0.00000000       0.00000000       0.00000000       0.00000000       0.16952734
In       0.00000000       0.00000000       5.41212121       0.00000000       0.00000000      -0.16952734
2
Properties=species:S:1:pos:R:3:forces:R:3 energy=-0.7586144091173145 pbc="F F F"
In       0.00000000       0.00000000       0.00000000       0.00000000       0.00000000       0.15104388
In       0.00000000       0.00000000       5.47090909       0.00000000       0.00000000      -0.15104388
2
Properties=species:S:1:pos:R:3:forces:R:3 energy=-0.750321468396617 pbc="F F F"
In       0.00000000       0.00000000       0.00000000       0.00000000       0.00000000       0.13084364
In       0.00000000       0.00000000       5.52969697       0.00000000       0.00000000      -0.13084364
2
Properties=species:S:1:pos:R:3:forces:R:3 energy=-0.743248977107944 pbc="F F F"
In       0.00000000       0.00000000       0.00000000       0.00000000       0.00000000       0.10970327
In       0.00000000       0.00000000       5.58848485       0.00000000       0.00000000      -0.10970327
2
Properties=species:S:1:pos:R:3:forces:R:3 energy=-0.7374238723911443 pbc="F F F"
In       0.00000000       0.00000000       0.00000000       0.00000000       0.00000000       0.08855931
In       0.00000000       0.00000000       5.64727273       0.00000000       0.00000000      -0.08855931
2
Properties=species:S:1:pos:R:3:forces:R:3 energy=-0.7328187189427083 pbc="F F F"
In       0.00000000       0.00000000       0.00000000       0.00000000       0.00000000       0.06840711
In       0.00000000       0.00000000       5.70606061       0.00000000       0.00000000      -0.06840711
2
Properties=species:S:1:pos:R:3:forces:R:3 energy=-0.7293393229210093 pbc="F F F"
In       0.00000000       0.00000000       0.00000000       0.00000000       0.00000000       0.05019768
In       0.00000000       0.00000000       5.76484848       0.00000000       0.00000000      -0.05019768
2
Properties=species:S:1:pos:R:3:forces:R:3 energy=-0.7268589440124688 pbc="F F F"
In       0.00000000       0.00000000       0.00000000       0.00000000       0.00000000       0.03480722
In       0.00000000       0.00000000       5.82363636       0.00000000       0.00000000      -0.03480722
2
Properties=species:S:1:pos:R:3:forces:R:3 energy=-0.7251817635359777 pbc="F F F"
In       0.00000000       0.00000000       0.00000000       0.00000000       0.00000000       0.02296454
In       0.00000000       0.00000000       5.88242424       0.00000000       0.00000000      -0.02296454
2
Properties=species:S:1:pos:R:3:forces:R:3 energy=-0.7240773539345747 pbc="F F F"
In       0.00000000       0.00000000       0.00000000       0.00000000       0.00000000       0.01527975
In       0.00000000       0.00000000       5.94121212       0.00000000       0.00000000      -0.01527975
2
Properties=species:S:1:pos:R:3:forces:R:3 energy=-0.7232928856403121 pbc="F F F"
In       0.00000000       0.00000000       0.00000000       0.00000000       0.00000000       0.01224228
In       0.00000000       0.00000000       6.00000000       0.00000000       0.00000000      -0.01224228
