2
Properties=species:S:1:pos:R:3:forces:R:3 energy=16428.351306895507 pbc="F F F"
Ir       0.00000000       0.00000000       0.00000000       0.00000000       0.00000000 -289598.43750000
Ir       0.00000000       0.00000000       0.18000000       0.00000000       0.00000000  289598.43750000
2
Properties=species:S:1:pos:R:3:forces:R:3 energy=6330.729724864259 pbc="F F F"
Ir       0.00000000       0.00000000       0.00000000       0.00000000       0.00000000  -95231.14843750
Ir       0.00000000       0.00000000       0.23878788       0.00000000       0.00000000   95231.14843750
2
Properties=species:S:1:pos:R:3:forces:R:3 energy=2753.3583869768013 pbc="F F F"
Ir       0.00000000       0.00000000       0.00000000       0.00000000       0.00000000  -36827.64453125
Ir       0.00000000       0.00000000       0.29757576       0.00000000       0.00000000   36827.64453125
2
Properties=species:S:1:pos:R:3:forces:R:3 energy=1304.4450569018443 pbc="F F F"
Ir       0.00000000       0.00000000       0.00000000       0.00000000       0.00000000  -15751.22363281
Ir       0.00000000       0.00000000       0.35636364       0.00000000       0.00000000   15751.22363281
2
Properties=species:S:1:pos:R:3:forces:R:3 energy=664.1089363027111 pbc="F F F"
Ir       0.00000000       0.00000000       0.00000000       0.00000000       0.00000000   -7238.78271484
Ir       0.00000000       0.00000000       0.41515152       0.00000000       0.00000000    7238.78271484
2
Properties=species:S:1:pos:R:3:forces:R:3 energy=362.206745153273 pbc="F F F"
Ir       0.00000000       0.00000000       0.00000000       0.00000000       0.00000000   -3517.68847656
Ir       0.00000000       0.00000000       0.47393939       0.00000000       0.00000000    3517.68847656
2
Properties=species:S:1:pos:R:3:forces:R:3 energy=212.58819964322117 pbc="F F F"
Ir       0.00000000       0.00000000       0.00000000       0.00000000       0.00000000   -1781.71533203
Ir       0.00000000       0.00000000       0.53272727       0.00000000       0.00000000    1781.71533203
2
Properties=species:S:1:pos:R:3:forces:R:3 energy=135.9293709490513 pbc="F F F"
Ir       0.00000000       0.00000000       0.00000000       0.00000000       0.00000000    -921.84844971
Ir       0.00000000       0.00000000       0.59151515       0.00000000       0.00000000     921.84844971
2
Properties=species:S:1:pos:R:3:forces:R:3 energy=96.31293119307182 pbc="F F F"
Ir       0.00000000       0.00000000       0.00000000       0.00000000       0.00000000    -472.54714966
Ir       0.00000000       0.00000000       0.65030303       0.00000000       0.00000000     472.54714966
2
Properties=species:S:1:pos:R:3:forces:R:3 energy=76.35345101830106 pbc="F F F"
Ir       0.00000000       0.00000000       0.00000000       0.00000000       0.00000000    -231.65751648
Ir       0.00000000       0.00000000       0.70909091       0.00000000       0.00000000     231.65751648
2
Properties=species:S:1:pos:R:3:forces:R:3 energy=66.76930659074264 pbc="F F F"
Ir       0.00000000       0.00000000       0.00000000       0.00000000       0.00000000    -109.83375549
Ir       0.00000000       0.00000000       0.76787879       0.00000000       0.00000000     109.83375549
2
Properties=species:S:1:pos:R:3:forces:R:3 energy=61.98276965791916 pbc="F F F"
Ir       0.00000000       0.00000000       0.00000000       0.00000000       0.00000000     -62.67628479
Ir       0.00000000       0.00000000       0.82666667       0.00000000       0.00000000      62.67628479
2
Properties=species:S:1:pos:R:3:forces:R:3 energy=58.55775550419434 pbc="F F F"
Ir       0.00000000       0.00000000       0.00000000       0.00000000       0.00000000     -58.65331650
Ir       0.00000000       0.00000000       0.88545455       0.00000000       0.00000000      58.65331650
2
Properties=species:S:1:pos:R:3:forces:R:3 energy=54.7864547225077 pbc="F F F"
Ir       0.00000000       0.00000000       0.00000000       0.00000000       0.00000000     -69.77558899
Ir       0.00000000       0.00000000       0.94424242       0.00000000       0.00000000      69.77558899
2
Properties=species:S:1:pos:R:3:forces:R:3 energy=49.437967530578625 pbc="F F F"
Ir       0.00000000       0.00000000       0.00000000       0.00000000       0.00000000    -103.90155029
Ir       0.00000000       0.00000000       1.00303030       0.00000000       0.00000000     103.90155029
2
Properties=species:S:1:pos:R:3:forces:R:3 energy=43.324378186593776 pbc="F F F"
Ir       0.00000000       0.00000000       0.00000000       0.00000000       0.00000000    -104.32673645
Ir       0.00000000       0.00000000       1.06181818       0.00000000       0.00000000     104.32673645
2
Properties=species:S:1:pos:R:3:forces:R:3 energy=37.07931177809153 pbc="F F F"
Ir       0.00000000       0.00000000       0.00000000       0.00000000       0.00000000    -118.37841797
Ir       0.00000000       0.00000000       1.12060606       0.00000000       0.00000000     118.37841797
2
Properties=species:S:1:pos:R:3:forces:R:3 energy=29.269361554433466 pbc="F F F"
Ir       0.00000000       0.00000000       0.00000000       0.00000000       0.00000000    -133.60792542
Ir       0.00000000       0.00000000       1.17939394       0.00000000       0.00000000     133.60792542
2
Properties=species:S:1:pos:R:3:forces:R:3 energy=21.802646805978753 pbc="F F F"
Ir       0.00000000       0.00000000       0.00000000       0.00000000       0.00000000    -120.35621643
Ir       0.00000000       0.00000000       1.23818182       0.00000000       0.00000000     120.35621643
2
Properties=species:S:1:pos:R:3:forces:R:3 energy=15.142536046762398 pbc="F F F"
Ir       0.00000000       0.00000000       0.00000000       0.00000000       0.00000000    -105.88642120
Ir       0.00000000       0.00000000       1.29696970       0.00000000       0.00000000     105.88642120
2
Properties=species:S:1:pos:R:3:forces:R:3 energy=9.389713569451876 pbc="F F F"
Ir       0.00000000       0.00000000       0.00000000       0.00000000       0.00000000     -89.51615906
Ir       0.00000000       0.00000000       1.35575758       0.00000000       0.00000000      89.51615906
2
Properties=species:S:1:pos:R:3:forces:R:3 energy=4.662371709323698 pbc="F F F"
Ir       0.00000000       0.00000000       0.00000000       0.00000000       0.00000000     -70.97215271
Ir       0.00000000       0.00000000       1.41454545       0.00000000       0.00000000      70.97215271
2
Properties=species:S:1:pos:R:3:forces:R:3 energy=1.0446528265326893 pbc="F F F"
Ir       0.00000000       0.00000000       0.00000000       0.00000000       0.00000000     -52.51515198
Ir       0.00000000       0.00000000       1.47333333       0.00000000       0.00000000      52.51515198
2
Properties=species:S:1:pos:R:3:forces:R:3 energy=-1.5821575853958985 pbc="F F F"
Ir       0.00000000       0.00000000       0.00000000       0.00000000       0.00000000     -37.42845154
Ir       0.00000000       0.00000000       1.53212121       0.00000000       0.00000000      37.42845154
2
Properties=species:S:1:pos:R:3:forces:R:3 energy=-3.4099579766114285 pbc="F F F"
Ir       0.00000000       0.00000000       0.00000000       0.00000000       0.00000000     -25.16180611
Ir       0.00000000       0.00000000       1.59090909       0.00000000       0.00000000      25.16180611
2
Properties=species:S:1:pos:R:3:forces:R:3 energy=-4.59587335480254 pbc="F F F"
Ir       0.00000000       0.00000000       0.00000000       0.00000000       0.00000000     -15.73242950
Ir       0.00000000       0.00000000       1.64969697       0.00000000       0.00000000      15.73242950
2
Properties=species:S:1:pos:R:3:forces:R:3 energy=-5.326637286264763 pbc="F F F"
Ir       0.00000000       0.00000000       0.00000000       0.00000000       0.00000000      -9.66500568
Ir       0.00000000       0.00000000       1.70848485       0.00000000       0.00000000       9.66500568
2
Properties=species:S:1:pos:R:3:forces:R:3 energy=-5.785243650349612 pbc="F F F"
Ir       0.00000000       0.00000000       0.00000000       0.00000000       0.00000000      -6.28989983
Ir       0.00000000       0.00000000       1.76727273       0.00000000       0.00000000       6.28989983
2
Properties=species:S:1:pos:R:3:forces:R:3 energy=-6.096652029940237 pbc="F F F"
Ir       0.00000000       0.00000000       0.00000000       0.00000000       0.00000000      -4.48075676
Ir       0.00000000       0.00000000       1.82606061       0.00000000       0.00000000       4.48075676
2
Properties=species:S:1:pos:R:3:forces:R:3 energy=-6.325339920920846 pbc="F F F"
Ir       0.00000000       0.00000000       0.00000000       0.00000000       0.00000000      -3.36118007
Ir       0.00000000       0.00000000       1.88484848       0.00000000       0.00000000       3.36118007
2
Properties=species:S:1:pos:R:3:forces:R:3 energy=-6.4950442213501285 pbc="F F F"
Ir       0.00000000       0.00000000       0.00000000       0.00000000       0.00000000      -2.41427851
Ir       0.00000000       0.00000000       1.94363636       0.00000000       0.00000000       2.41427851
2
Properties=species:S:1:pos:R:3:forces:R:3 energy=-6.607837002108848 pbc="F F F"
Ir       0.00000000       0.00000000       0.00000000       0.00000000       0.00000000      -1.40416896
Ir       0.00000000       0.00000000       2.00242424       0.00000000       0.00000000       1.40416896
2
Properties=species:S:1:pos:R:3:forces:R:3 energy=-6.657966918692569 pbc="F F F"
Ir       0.00000000       0.00000000       0.00000000       0.00000000       0.00000000      -0.28680572
Ir       0.00000000       0.00000000       2.06121212       0.00000000       0.00000000       0.28680572
2
Properties=species:S:1:pos:R:3:forces:R:3 energy=-6.640770511758882 pbc="F F F"
Ir       0.00000000       0.00000000       0.00000000       0.00000000       0.00000000       0.86929715
Ir       0.00000000       0.00000000       2.12000000       0.00000000       0.00000000      -0.86929715
2
Properties=species:S:1:pos:R:3:forces:R:3 energy=-6.557254760785679 pbc="F F F"
Ir       0.00000000       0.00000000       0.00000000       0.00000000       0.00000000       1.94900167
Ir       0.00000000       0.00000000       2.17878788       0.00000000       0.00000000      -1.94900167
2
Properties=species:S:1:pos:R:3:forces:R:3 energy=-6.415446203135961 pbc="F F F"
Ir       0.00000000       0.00000000       0.00000000       0.00000000       0.00000000       2.83403444
Ir       0.00000000       0.00000000       2.23757576       0.00000000       0.00000000      -2.83403444
2
Properties=species:S:1:pos:R:3:forces:R:3 energy=-6.2297430431051355 pbc="F F F"
Ir       0.00000000       0.00000000       0.00000000       0.00000000       0.00000000       3.42974424
Ir       0.00000000       0.00000000       2.29636364       0.00000000       0.00000000      -3.42974424
2
Properties=species:S:1:pos:R:3:forces:R:3 energy=-6.018823166162864 pbc="F F F"
Ir       0.00000000       0.00000000       0.00000000       0.00000000       0.00000000       3.68943787
Ir       0.00000000       0.00000000       2.35515152       0.00000000       0.00000000      -3.68943787
2
Properties=species:S:1:pos:R:3:forces:R:3 energy=-5.802163937195819 pbc="F F F"
Ir       0.00000000       0.00000000       0.00000000       0.00000000       0.00000000       3.63465714
Ir       0.00000000       0.00000000       2.41393939       0.00000000       0.00000000      -3.63465714
2
Properties=species:S:1:pos:R:3:forces:R:3 energy=-5.595929523953484 pbc="F F F"
Ir       0.00000000       0.00000000       0.00000000       0.00000000       0.00000000       3.35377121
Ir       0.00000000       0.00000000       2.47272727       0.00000000       0.00000000      -3.35377121
2
Properties=species:S:1:pos:R:3:forces:R:3 energy=-5.409853110087715 pbc="F F F"
Ir       0.00000000       0.00000000       0.00000000       0.00000000       0.00000000       2.96981049
Ir       0.00000000       0.00000000       2.53151515       0.00000000       0.00000000      -2.96981049
2
Properties=species:S:1:pos:R:3:forces:R:3 energy=-5.24653670287532 pbc="F F F"
Ir       0.00000000       0.00000000       0.00000000       0.00000000       0.00000000       2.59538007
Ir       0.00000000       0.00000000       2.59030303       0.00000000       0.00000000      -2.59538007
2
Properties=species:S:1:pos:R:3:forces:R:3 energy=-5.103064674738155 pbc="F F F"
Ir       0.00000000       0.00000000       0.00000000       0.00000000       0.00000000       2.30274749
Ir       0.00000000       0.00000000       2.64909091       0.00000000       0.00000000      -2.30274749
2
Properties=species:S:1:pos:R:3:forces:R:3 energy=-4.973702995459909 pbc="F F F"
Ir       0.00000000       0.00000000       0.00000000       0.00000000       0.00000000       2.11490655
Ir       0.00000000       0.00000000       2.70787879       0.00000000       0.00000000      -2.11490655
2
Properties=species:S:1:pos:R:3:forces:R:3 energy=-4.852771670169373 pbc="F F F"
Ir       0.00000000       0.00000000       0.00000000       0.00000000       0.00000000       2.00957417
Ir       0.00000000       0.00000000       2.76666667       0.00000000       0.00000000      -2.00957417
2
Properties=species:S:1:pos:R:3:forces:R:3 energy=-4.736608187832736 pbc="F F F"
Ir       0.00000000       0.00000000       0.00000000       0.00000000       0.00000000       1.94651973
Ir       0.00000000       0.00000000       2.82545455       0.00000000       0.00000000      -1.94651973
2
Properties=species:S:1:pos:R:3:forces:R:3 energy=-4.623646573551778 pbc="F F F"
Ir       0.00000000       0.00000000       0.00000000       0.00000000       0.00000000       1.89738822
Ir       0.00000000       0.00000000       2.88424242       0.00000000       0.00000000      -1.89738822
2
Properties=species:S:1:pos:R:3:forces:R:3 energy=-4.513513717371643 pbc="F F F"
Ir       0.00000000       0.00000000       0.00000000       0.00000000       0.00000000       1.84893894
Ir       0.00000000       0.00000000       2.94303030       0.00000000       0.00000000      -1.84893894
2
Properties=species:S:1:pos:R:3:forces:R:3 energy=-4.406333241989316 pbc="F F F"
Ir       0.00000000       0.00000000       0.00000000       0.00000000       0.00000000       1.79669583
Ir       0.00000000       0.00000000       3.00181818       0.00000000       0.00000000      -1.79669583
2
Properties=species:S:1:pos:R:3:forces:R:3 energy=-4.302341007800063 pbc="F F F"
Ir       0.00000000       0.00000000       0.00000000       0.00000000       0.00000000       1.74065113
Ir       0.00000000       0.00000000       3.06060606       0.00000000       0.00000000      -1.74065113
2
Properties=species:S:1:pos:R:3:forces:R:3 energy=-4.201726947154551 pbc="F F F"
Ir       0.00000000       0.00000000       0.00000000       0.00000000       0.00000000       1.68193114
Ir       0.00000000       0.00000000       3.11939394       0.00000000       0.00000000      -1.68193114
2
Properties=species:S:1:pos:R:3:forces:R:3 energy=-4.1046437790084 pbc="F F F"
Ir       0.00000000       0.00000000       0.00000000       0.00000000       0.00000000       1.62022281
Ir       0.00000000       0.00000000       3.17818182       0.00000000       0.00000000      -1.62022281
2
Properties=species:S:1:pos:R:3:forces:R:3 energy=-4.011340898858665 pbc="F F F"
Ir       0.00000000       0.00000000       0.00000000       0.00000000       0.00000000       1.55264425
Ir       0.00000000       0.00000000       3.23696970       0.00000000       0.00000000      -1.55264425
2
Properties=species:S:1:pos:R:3:forces:R:3 energy=-3.922299289997856 pbc="F F F"
Ir       0.00000000       0.00000000       0.00000000       0.00000000       0.00000000       1.47440958
Ir       0.00000000       0.00000000       3.29575758       0.00000000       0.00000000      -1.47440958
2
Properties=species:S:1:pos:R:3:forces:R:3 energy=-3.8382860570203343 pbc="F F F"
Ir       0.00000000       0.00000000       0.00000000       0.00000000       0.00000000       1.38096273
Ir       0.00000000       0.00000000       3.35454545       0.00000000       0.00000000      -1.38096273
2
Properties=species:S:1:pos:R:3:forces:R:3 energy=-3.7602694284309153 pbc="F F F"
Ir       0.00000000       0.00000000       0.00000000       0.00000000       0.00000000       1.27042103
Ir       0.00000000       0.00000000       3.41333333       0.00000000       0.00000000      -1.27042103
2
Properties=species:S:1:pos:R:3:forces:R:3 energy=-3.689210155395347 pbc="F F F"
Ir       0.00000000       0.00000000       0.00000000       0.00000000       0.00000000       1.14494359
Ir       0.00000000       0.00000000       3.47212121       0.00000000       0.00000000      -1.14494359
2
Properties=species:S:1:pos:R:3:forces:R:3 energy=-3.62583226710881 pbc="F F F"
Ir       0.00000000       0.00000000       0.00000000       0.00000000       0.00000000       1.01033449
Ir       0.00000000       0.00000000       3.53090909       0.00000000       0.00000000      -1.01033449
2
Properties=species:S:1:pos:R:3:forces:R:3 energy=-3.5704480208737044 pbc="F F F"
Ir       0.00000000       0.00000000       0.00000000       0.00000000       0.00000000       0.87428033
Ir       0.00000000       0.00000000       3.58969697       0.00000000       0.00000000      -0.87428033
2
Properties=species:S:1:pos:R:3:forces:R:3 energy=-3.5229173669414604 pbc="F F F"
Ir       0.00000000       0.00000000       0.00000000       0.00000000       0.00000000       0.74430496
Ir       0.00000000       0.00000000       3.64848485       0.00000000       0.00000000      -0.74430496
2
Properties=species:S:1:pos:R:3:forces:R:3 energy=-3.482700267551412 pbc="F F F"
Ir       0.00000000       0.00000000       0.00000000       0.00000000       0.00000000       0.62628919
Ir       0.00000000       0.00000000       3.70727273       0.00000000       0.00000000      -0.62628919
2
Properties=species:S:1:pos:R:3:forces:R:3 energy=-3.44897205584512 pbc="F F F"
Ir       0.00000000       0.00000000       0.00000000       0.00000000       0.00000000       0.52395964
Ir       0.00000000       0.00000000       3.76606061       0.00000000       0.00000000      -0.52395964
2
Properties=species:S:1:pos:R:3:forces:R:3 energy=-3.420750891603705 pbc="F F F"
Ir       0.00000000       0.00000000       0.00000000       0.00000000       0.00000000       0.43915087
Ir       0.00000000       0.00000000       3.82484848       0.00000000       0.00000000      -0.43915087
2
Properties=species:S:1:pos:R:3:forces:R:3 energy=-3.3969850026089468 pbc="F F F"
Ir       0.00000000       0.00000000       0.00000000       0.00000000       0.00000000       0.37236097
Ir       0.00000000       0.00000000       3.88363636       0.00000000       0.00000000      -0.37236097
2
Properties=species:S:1:pos:R:3:forces:R:3 energy=-3.3766229294251 pbc="F F F"
Ir       0.00000000       0.00000000       0.00000000       0.00000000       0.00000000       0.32325417
Ir       0.00000000       0.00000000       3.94242424       0.00000000       0.00000000      -0.32325417
2
Properties=species:S:1:pos:R:3:forces:R:3 energy=-3.358650120650916 pbc="F F F"
Ir       0.00000000       0.00000000       0.00000000       0.00000000       0.00000000       0.29087481
Ir       0.00000000       0.00000000       4.00121212       0.00000000       0.00000000      -0.29087481
2
Properties=species:S:1:pos:R:3:forces:R:3 energy=-3.342125802268206 pbc="F F F"
Ir       0.00000000       0.00000000       0.00000000       0.00000000       0.00000000       0.27365646
Ir       0.00000000       0.00000000       4.06000000       0.00000000       0.00000000      -0.27365646
2
Properties=species:S:1:pos:R:3:forces:R:3 energy=-3.3262213693687195 pbc="F F F"
Ir       0.00000000       0.00000000       0.00000000       0.00000000       0.00000000       0.26936209
Ir       0.00000000       0.00000000       4.11878788       0.00000000       0.00000000      -0.26936209
2
Properties=species:S:1:pos:R:3:forces:R:3 energy=-3.310258148156486 pbc="F F F"
Ir       0.00000000       0.00000000       0.00000000       0.00000000       0.00000000       0.27511993
Ir       0.00000000       0.00000000       4.17757576       0.00000000       0.00000000      -0.27511993
2
Properties=species:S:1:pos:R:3:forces:R:3 energy=-3.293741560328631 pbc="F F F"
Ir       0.00000000       0.00000000       0.00000000       0.00000000       0.00000000       0.28760368
Ir       0.00000000       0.00000000       4.23636364       0.00000000       0.00000000      -0.28760368
2
Properties=species:S:1:pos:R:3:forces:R:3 energy=-3.2763787343720074 pbc="F F F"
Ir       0.00000000       0.00000000       0.00000000       0.00000000       0.00000000       0.30335024
Ir       0.00000000       0.00000000       4.29515152       0.00000000       0.00000000      -0.30335024
2
Properties=species:S:1:pos:R:3:forces:R:3 energy=-3.2580751645352684 pbc="F F F"
Ir       0.00000000       0.00000000       0.00000000       0.00000000       0.00000000       0.31913355
Ir       0.00000000       0.00000000       4.35393939       0.00000000       0.00000000      -0.31913355
2
Properties=species:S:1:pos:R:3:forces:R:3 energy=-3.238908488784903 pbc="F F F"
Ir       0.00000000       0.00000000       0.00000000       0.00000000       0.00000000       0.33230507
Ir       0.00000000       0.00000000       4.41272727       0.00000000       0.00000000      -0.33230507
2
Properties=species:S:1:pos:R:3:forces:R:3 energy=-3.2190914000450306 pbc="F F F"
Ir       0.00000000       0.00000000       0.00000000       0.00000000       0.00000000       0.34104180
Ir       0.00000000       0.00000000       4.47151515       0.00000000       0.00000000      -0.34104180
2
Properties=species:S:1:pos:R:3:forces:R:3 energy=-3.198915304216916 pbc="F F F"
Ir       0.00000000       0.00000000       0.00000000       0.00000000       0.00000000       0.34443811
Ir       0.00000000       0.00000000       4.53030303       0.00000000       0.00000000      -0.34443811
2
Properties=species:S:1:pos:R:3:forces:R:3 energy=-3.1787000138587826 pbc="F F F"
Ir       0.00000000       0.00000000       0.00000000       0.00000000       0.00000000       0.34244403
Ir       0.00000000       0.00000000       4.58909091       0.00000000       0.00000000      -0.34244403
2
Properties=species:S:1:pos:R:3:forces:R:3 energy=-3.1587464557759484 pbc="F F F"
Ir       0.00000000       0.00000000       0.00000000       0.00000000       0.00000000       0.33567044
Ir       0.00000000       0.00000000       4.64787879       0.00000000       0.00000000      -0.33567044
2
Properties=species:S:1:pos:R:3:forces:R:3 energy=-3.1393076132964968 pbc="F F F"
Ir       0.00000000       0.00000000       0.00000000       0.00000000       0.00000000       0.32509202
Ir       0.00000000       0.00000000       4.70666667       0.00000000       0.00000000      -0.32509202
2
Properties=species:S:1:pos:R:3:forces:R:3 energy=-3.1205770853472985 pbc="F F F"
Ir       0.00000000       0.00000000       0.00000000       0.00000000       0.00000000       0.31178200
Ir       0.00000000       0.00000000       4.76545455       0.00000000       0.00000000      -0.31178200
2
Properties=species:S:1:pos:R:3:forces:R:3 energy=-3.1026834856172756 pbc="F F F"
Ir       0.00000000       0.00000000       0.00000000       0.00000000       0.00000000       0.29670298
Ir       0.00000000       0.00000000       4.82424242       0.00000000       0.00000000      -0.29670298
2
Properties=species:S:1:pos:R:3:forces:R:3 energy=-3.085712097466409 pbc="F F F"
Ir       0.00000000       0.00000000       0.00000000       0.00000000       0.00000000       0.28061327
Ir       0.00000000       0.00000000       4.88303030       0.00000000       0.00000000      -0.28061327
2
Properties=species:S:1:pos:R:3:forces:R:3 energy=-3.069700239434608 pbc="F F F"
Ir       0.00000000       0.00000000       0.00000000       0.00000000       0.00000000       0.26403913
Ir       0.00000000       0.00000000       4.94181818       0.00000000       0.00000000      -0.26403913
2
Properties=species:S:1:pos:R:3:forces:R:3 energy=-3.0546694485820627 pbc="F F F"
Ir       0.00000000       0.00000000       0.00000000       0.00000000       0.00000000       0.24732238
Ir       0.00000000       0.00000000       5.00060606       0.00000000       0.00000000      -0.24732238
2
Properties=species:S:1:pos:R:3:forces:R:3 energy=-3.0406200285401503 pbc="F F F"
Ir       0.00000000       0.00000000       0.00000000       0.00000000       0.00000000       0.23062275
Ir       0.00000000       0.00000000       5.05939394       0.00000000       0.00000000      -0.23062275
2
Properties=species:S:1:pos:R:3:forces:R:3 energy=-3.0275529016573346 pbc="F F F"
Ir       0.00000000       0.00000000       0.00000000       0.00000000       0.00000000       0.21395768
Ir       0.00000000       0.00000000       5.11818182       0.00000000       0.00000000      -0.21395768
2
Properties=species:S:1:pos:R:3:forces:R:3 energy=-3.0154663091529237 pbc="F F F"
Ir       0.00000000       0.00000000       0.00000000       0.00000000       0.00000000       0.19721226
Ir       0.00000000       0.00000000       5.17696970       0.00000000       0.00000000      -0.19721226
2
Properties=species:S:1:pos:R:3:forces:R:3 energy=-3.004370430678127 pbc="F F F"
Ir       0.00000000       0.00000000       0.00000000       0.00000000       0.00000000       0.18023701
Ir       0.00000000       0.00000000       5.23575758       0.00000000       0.00000000      -0.18023701
2
Properties=species:S:1:pos:R:3:forces:R:3 energy=-2.9942820567439417 pbc="F F F"
Ir       0.00000000       0.00000000       0.00000000       0.00000000       0.00000000       0.16290596
Ir       0.00000000       0.00000000       5.29454545       0.00000000       0.00000000      -0.16290596
2
Properties=species:S:1:pos:R:3:forces:R:3 energy=-2.98522379343794 pbc="F F F"
Ir       0.00000000       0.00000000       0.00000000       0.00000000       0.00000000       0.14519858
Ir       0.00000000       0.00000000       5.35333333       0.00000000       0.00000000      -0.14519858
2
Properties=species:S:1:pos:R:3:forces:R:3 energy=-2.9772152155942675 pbc="F F F"
Ir       0.00000000       0.00000000       0.00000000       0.00000000       0.00000000       0.12726010
Ir       0.00000000       0.00000000       5.41212121       0.00000000       0.00000000      -0.12726010
2
Properties=species:S:1:pos:R:3:forces:R:3 energy=-2.970260262287171 pbc="F F F"
Ir       0.00000000       0.00000000       0.00000000       0.00000000       0.00000000       0.10937334
Ir       0.00000000       0.00000000       5.47090909       0.00000000       0.00000000      -0.10937334
2
Properties=species:S:1:pos:R:3:forces:R:3 energy=-2.964346368687882 pbc="F F F"
Ir       0.00000000       0.00000000       0.00000000       0.00000000       0.00000000       0.09191942
Ir       0.00000000       0.00000000       5.52969697       0.00000000       0.00000000      -0.09191942
2
Properties=species:S:1:pos:R:3:forces:R:3 energy=-2.959436151508657 pbc="F F F"
Ir       0.00000000       0.00000000       0.00000000       0.00000000       0.00000000       0.07530753
Ir       0.00000000       0.00000000       5.58848485       0.00000000       0.00000000      -0.07530753
2
Properties=species:S:1:pos:R:3:forces:R:3 energy=-2.955470063285368 pbc="F F F"
Ir       0.00000000       0.00000000       0.00000000       0.00000000       0.00000000       0.05992253
Ir       0.00000000       0.00000000       5.64727273       0.00000000       0.00000000      -0.05992253
2
Properties=species:S:1:pos:R:3:forces:R:3 energy=-2.952360945180142 pbc="F F F"
Ir       0.00000000       0.00000000       0.00000000       0.00000000       0.00000000       0.04610352
Ir       0.00000000       0.00000000       5.70606061       0.00000000       0.00000000      -0.04610352
2
Properties=species:S:1:pos:R:3:forces:R:3 energy=-2.950009590713262 pbc="F F F"
Ir       0.00000000       0.00000000       0.00000000       0.00000000       0.00000000       0.03411590
Ir       0.00000000       0.00000000       5.76484848       0.00000000       0.00000000      -0.03411590
2
Properties=species:S:1:pos:R:3:forces:R:3 energy=-2.9483061849861576 pbc="F F F"
Ir       0.00000000       0.00000000       0.00000000       0.00000000       0.00000000       0.02422827
Ir       0.00000000       0.00000000       5.82363636       0.00000000       0.00000000      -0.02422827
2
Properties=species:S:1:pos:R:3:forces:R:3 energy=-2.9471179267141774 pbc="F F F"
Ir       0.00000000       0.00000000       0.00000000       0.00000000       0.00000000       0.01667948
Ir       0.00000000       0.00000000       5.88242424       0.00000000       0.00000000      -0.01667948
2
Properties=species:S:1:pos:R:3:forces:R:3 energy=-2.9462950488796884 pbc="F F F"
Ir       0.00000000       0.00000000       0.00000000       0.00000000       0.00000000       0.01172605
Ir       0.00000000       0.00000000       5.94121212       0.00000000       0.00000000      -0.01172605
2
Properties=species:S:1:pos:R:3:forces:R:3 energy=-2.9456820172776923 pbc="F F F"
Ir       0.00000000       0.00000000       0.00000000       0.00000000       0.00000000       0.00964539
Ir       0.00000000       0.00000000       6.00000000       0.00000000       0.00000000      -0.00964539
