2
Properties=species:S:1:pos:R:3:forces:R:3 energy=16428.351306895507 pbc="F F F"
Ir       0.00000000       0.00000000       0.00000000       0.00000000       0.00000000 -289598.43750000
Ir       0.00000000       0.00000000       0.18000000       0.00000000       0.00000000  289598.43750000
2
Properties=species:S:1:pos:R:3:forces:R:3 energy=6330.729724864259 pbc="F F F"
Ir       0.00000000       0.00000000       0.00000000       0.00000000       0.00000000  -95231.14062500
Ir       0.00000000       0.00000000       0.23878788       0.00000000       0.00000000   95231.14062500
2
Properties=species:S:1:pos:R:3:forces:R:3 energy=2753.3583869768013 pbc="F F F"
Ir       0.00000000       0.00000000       0.00000000       0.00000000       0.00000000  -36827.64843750
Ir       0.00000000       0.00000000       0.29757576       0.00000000       0.00000000   36827.64843750
2
Properties=species:S:1:pos:R:3:forces:R:3 energy=1304.4450569018443 pbc="F F F"
Ir       0.00000000       0.00000000       0.00000000       0.00000000       0.00000000  -15751.22460938
Ir       0.00000000       0.00000000       0.35636364       0.00000000       0.00000000   15751.22460938
2
Properties=species:S:1:pos:R:3:forces:R:3 energy=664.1089973378673 pbc="F F F"
Ir       0.00000000       0.00000000       0.00000000       0.00000000       0.00000000   -7238.78271484
Ir       0.00000000       0.00000000       0.41515152       0.00000000       0.00000000    7238.78271484
2
Properties=species:S:1:pos:R:3:forces:R:3 energy=362.206745153273 pbc="F F F"
Ir       0.00000000       0.00000000       0.00000000       0.00000000       0.00000000   -3517.68847656
Ir       0.00000000       0.00000000       0.47393939       0.00000000       0.00000000    3517.68847656
2
Properties=species:S:1:pos:R:3:forces:R:3 energy=212.58821490201024 pbc="F F F"
Ir       0.00000000       0.00000000       0.00000000       0.00000000       0.00000000   -1781.71533203
Ir       0.00000000       0.00000000       0.53272727       0.00000000       0.00000000    1781.71533203
2
Properties=species:S:1:pos:R:3:forces:R:3 energy=135.9293709490513 pbc="F F F"
Ir       0.00000000       0.00000000       0.00000000       0.00000000       0.00000000    -921.84851074
Ir       0.00000000       0.00000000       0.59151515       0.00000000       0.00000000     921.84851074
2
Properties=species:S:1:pos:R:3:forces:R:3 energy=96.31289304609916 pbc="F F F"
Ir       0.00000000       0.00000000       0.00000000       0.00000000       0.00000000    -472.54711914
Ir       0.00000000       0.00000000       0.65030303       0.00000000       0.00000000     472.54711914
2
Properties=species:S:1:pos:R:3:forces:R:3 energy=76.35346627709012 pbc="F F F"
Ir       0.00000000       0.00000000       0.00000000       0.00000000       0.00000000    -231.65763855
Ir       0.00000000       0.00000000       0.70909091       0.00000000       0.00000000     231.65763855
2
Properties=species:S:1:pos:R:3:forces:R:3 energy=66.7693676258989 pbc="F F F"
Ir       0.00000000       0.00000000       0.00000000       0.00000000       0.00000000    -109.83374786
Ir       0.00000000       0.00000000       0.76787879       0.00000000       0.00000000     109.83374786
2
Properties=species:S:1:pos:R:3:forces:R:3 energy=61.982754399130094 pbc="F F F"
Ir       0.00000000       0.00000000       0.00000000       0.00000000       0.00000000     -62.67602158
Ir       0.00000000       0.00000000       0.82666667       0.00000000       0.00000000      62.67602158
2
Properties=species:S:1:pos:R:3:forces:R:3 energy=58.55770209843262 pbc="F F F"
Ir       0.00000000       0.00000000       0.00000000       0.00000000       0.00000000     -58.65300369
Ir       0.00000000       0.00000000       0.88545455       0.00000000       0.00000000      58.65300369
2
Properties=species:S:1:pos:R:3:forces:R:3 energy=54.78649668417762 pbc="F F F"
Ir       0.00000000       0.00000000       0.00000000       0.00000000       0.00000000     -69.77547455
Ir       0.00000000       0.00000000       0.94424242       0.00000000       0.00000000      69.77547455
2
Properties=species:S:1:pos:R:3:forces:R:3 energy=49.437975159973156 pbc="F F F"
Ir       0.00000000       0.00000000       0.00000000       0.00000000       0.00000000    -103.90148926
Ir       0.00000000       0.00000000       1.00303030       0.00000000       0.00000000     103.90148926
2
Properties=species:S:1:pos:R:3:forces:R:3 energy=43.32437437189651 pbc="F F F"
Ir       0.00000000       0.00000000       0.00000000       0.00000000       0.00000000    -104.32671356
Ir       0.00000000       0.00000000       1.06181818       0.00000000       0.00000000     104.32671356
2
Properties=species:S:1:pos:R:3:forces:R:3 energy=37.079315592788795 pbc="F F F"
Ir       0.00000000       0.00000000       0.00000000       0.00000000       0.00000000    -118.37842560
Ir       0.00000000       0.00000000       1.12060606       0.00000000       0.00000000     118.37842560
2
Properties=species:S:1:pos:R:3:forces:R:3 energy=29.269365369130732 pbc="F F F"
Ir       0.00000000       0.00000000       0.00000000       0.00000000       0.00000000    -133.60798645
Ir       0.00000000       0.00000000       1.17939394       0.00000000       0.00000000     133.60798645
2
Properties=species:S:1:pos:R:3:forces:R:3 energy=21.802673508859613 pbc="F F F"
Ir       0.00000000       0.00000000       0.00000000       0.00000000       0.00000000    -120.35631561
Ir       0.00000000       0.00000000       1.23818182       0.00000000       0.00000000     120.35631561
2
Properties=species:S:1:pos:R:3:forces:R:3 energy=15.14254367615693 pbc="F F F"
Ir       0.00000000       0.00000000       0.00000000       0.00000000       0.00000000    -105.88647461
Ir       0.00000000       0.00000000       1.29696970       0.00000000       0.00000000     105.88647461
2
Properties=species:S:1:pos:R:3:forces:R:3 energy=9.389721198846408 pbc="F F F"
Ir       0.00000000       0.00000000       0.00000000       0.00000000       0.00000000     -89.51625061
Ir       0.00000000       0.00000000       1.35575758       0.00000000       0.00000000      89.51625061
2
Properties=species:S:1:pos:R:3:forces:R:3 energy=4.662370278812223 pbc="F F F"
Ir       0.00000000       0.00000000       0.00000000       0.00000000       0.00000000     -70.97216034
Ir       0.00000000       0.00000000       1.41454545       0.00000000       0.00000000      70.97216034
2
Properties=species:S:1:pos:R:3:forces:R:3 energy=1.0446556938912828 pbc="F F F"
Ir       0.00000000       0.00000000       0.00000000       0.00000000       0.00000000     -52.51515961
Ir       0.00000000       0.00000000       1.47333333       0.00000000       0.00000000      52.51515961
2
Properties=species:S:1:pos:R:3:forces:R:3 energy=-1.5821504328385254 pbc="F F F"
Ir       0.00000000       0.00000000       0.00000000       0.00000000       0.00000000     -37.42848206
Ir       0.00000000       0.00000000       1.53212121       0.00000000       0.00000000      37.42848206
2
Properties=species:S:1:pos:R:3:forces:R:3 energy=-3.4099560692627957 pbc="F F F"
Ir       0.00000000       0.00000000       0.00000000       0.00000000       0.00000000     -25.16182518
Ir       0.00000000       0.00000000       1.59090909       0.00000000       0.00000000      25.16182518
2
Properties=species:S:1:pos:R:3:forces:R:3 energy=-4.595871924291066 pbc="F F F"
Ir       0.00000000       0.00000000       0.00000000       0.00000000       0.00000000     -15.73245049
Ir       0.00000000       0.00000000       1.64969697       0.00000000       0.00000000      15.73245049
2
Properties=species:S:1:pos:R:3:forces:R:3 energy=-5.326638713608416 pbc="F F F"
Ir       0.00000000       0.00000000       0.00000000       0.00000000       0.00000000      -9.66500664
Ir       0.00000000       0.00000000       1.70848485       0.00000000       0.00000000       9.66500664
2
Properties=species:S:1:pos:R:3:forces:R:3 energy=-5.78524412718677 pbc="F F F"
Ir       0.00000000       0.00000000       0.00000000       0.00000000       0.00000000      -6.28989887
Ir       0.00000000       0.00000000       1.76727273       0.00000000       0.00000000       6.28989887
2
Properties=species:S:1:pos:R:3:forces:R:3 energy=-6.096652980446731 pbc="F F F"
Ir       0.00000000       0.00000000       0.00000000       0.00000000       0.00000000      -4.48075438
Ir       0.00000000       0.00000000       1.82606061       0.00000000       0.00000000       4.48075438
2
Properties=species:S:1:pos:R:3:forces:R:3 energy=-6.325340874595162 pbc="F F F"
Ir       0.00000000       0.00000000       0.00000000       0.00000000       0.00000000      -3.36118531
Ir       0.00000000       0.00000000       1.88484848       0.00000000       0.00000000       3.36118531
2
Properties=species:S:1:pos:R:3:forces:R:3 energy=-6.495045149681867 pbc="F F F"
Ir       0.00000000       0.00000000       0.00000000       0.00000000       0.00000000      -2.41427970
Ir       0.00000000       0.00000000       1.94363636       0.00000000       0.00000000       2.41427970
2
Properties=species:S:1:pos:R:3:forces:R:3 energy=-6.607837955783165 pbc="F F F"
Ir       0.00000000       0.00000000       0.00000000       0.00000000       0.00000000      -1.40417325
Ir       0.00000000       0.00000000       2.00242424       0.00000000       0.00000000       1.40417325
2
Properties=species:S:1:pos:R:3:forces:R:3 energy=-6.657966918692569 pbc="F F F"
Ir       0.00000000       0.00000000       0.00000000       0.00000000       0.00000000      -0.28679845
Ir       0.00000000       0.00000000       2.06121212       0.00000000       0.00000000       0.28679845
2
Properties=species:S:1:pos:R:3:forces:R:3 energy=-6.640770483248483 pbc="F F F"
Ir       0.00000000       0.00000000       0.00000000       0.00000000       0.00000000       0.86929655
Ir       0.00000000       0.00000000       2.12000000       0.00000000       0.00000000      -0.86929655
2
Properties=species:S:1:pos:R:3:forces:R:3 energy=-6.557255736634751 pbc="F F F"
Ir       0.00000000       0.00000000       0.00000000       0.00000000       0.00000000       1.94900143
Ir       0.00000000       0.00000000       2.17878788       0.00000000       0.00000000      -1.94900143
2
Properties=species:S:1:pos:R:3:forces:R:3 energy=-6.4154466514627195 pbc="F F F"
Ir       0.00000000       0.00000000       0.00000000       0.00000000       0.00000000       2.83403301
Ir       0.00000000       0.00000000       2.23757576       0.00000000       0.00000000      -2.83403301
2
Properties=species:S:1:pos:R:3:forces:R:3 energy=-6.229743996779452 pbc="F F F"
Ir       0.00000000       0.00000000       0.00000000       0.00000000       0.00000000       3.42974377
Ir       0.00000000       0.00000000       2.29636364       0.00000000       0.00000000      -3.42974377
2
Properties=species:S:1:pos:R:3:forces:R:3 energy=-6.018823169330686 pbc="F F F"
Ir       0.00000000       0.00000000       0.00000000       0.00000000       0.00000000       3.68943954
Ir       0.00000000       0.00000000       2.35515152       0.00000000       0.00000000      -3.68943954
2
Properties=species:S:1:pos:R:3:forces:R:3 energy=-5.802164414032977 pbc="F F F"
Ir       0.00000000       0.00000000       0.00000000       0.00000000       0.00000000       3.63465953
Ir       0.00000000       0.00000000       2.41393939       0.00000000       0.00000000      -3.63465953
2
Properties=species:S:1:pos:R:3:forces:R:3 energy=-5.595930963968425 pbc="F F F"
Ir       0.00000000       0.00000000       0.00000000       0.00000000       0.00000000       3.35377073
Ir       0.00000000       0.00000000       2.47272727       0.00000000       0.00000000      -3.35377073
2
Properties=species:S:1:pos:R:3:forces:R:3 energy=-5.409853072073849 pbc="F F F"
Ir       0.00000000       0.00000000       0.00000000       0.00000000       0.00000000       2.96981192
Ir       0.00000000       0.00000000       2.53151515       0.00000000       0.00000000      -2.96981192
2
Properties=species:S:1:pos:R:3:forces:R:3 energy=-5.24653670287532 pbc="F F F"
Ir       0.00000000       0.00000000       0.00000000       0.00000000       0.00000000       2.59537983
Ir       0.00000000       0.00000000       2.59030303       0.00000000       0.00000000      -2.59537983
2
Properties=species:S:1:pos:R:3:forces:R:3 energy=-5.103062723040011 pbc="F F F"
Ir       0.00000000       0.00000000       0.00000000       0.00000000       0.00000000       2.30274653
Ir       0.00000000       0.00000000       2.64909091       0.00000000       0.00000000      -2.30274653
2
Properties=species:S:1:pos:R:3:forces:R:3 energy=-4.973702493280173 pbc="F F F"
Ir       0.00000000       0.00000000       0.00000000       0.00000000       0.00000000       2.11490798
Ir       0.00000000       0.00000000       2.70787879       0.00000000       0.00000000      -2.11490798
2
Properties=species:S:1:pos:R:3:forces:R:3 energy=-4.852772153342175 pbc="F F F"
Ir       0.00000000       0.00000000       0.00000000       0.00000000       0.00000000       2.00957513
Ir       0.00000000       0.00000000       2.76666667       0.00000000       0.00000000      -2.00957513
2
Properties=species:S:1:pos:R:3:forces:R:3 energy=-4.736608664669895 pbc="F F F"
Ir       0.00000000       0.00000000       0.00000000       0.00000000       0.00000000       1.94652188
Ir       0.00000000       0.00000000       2.82545455       0.00000000       0.00000000      -1.94652188
2
Properties=species:S:1:pos:R:3:forces:R:3 energy=-4.62364609671462 pbc="F F F"
Ir       0.00000000       0.00000000       0.00000000       0.00000000       0.00000000       1.89738858
Ir       0.00000000       0.00000000       2.88424242       0.00000000       0.00000000      -1.89738858
2
Properties=species:S:1:pos:R:3:forces:R:3 energy=-4.5135137553855085 pbc="F F F"
Ir       0.00000000       0.00000000       0.00000000       0.00000000       0.00000000       1.84893954
Ir       0.00000000       0.00000000       2.94303030       0.00000000       0.00000000      -1.84893954
2
Properties=species:S:1:pos:R:3:forces:R:3 energy=-4.4063327651521575 pbc="F F F"
Ir       0.00000000       0.00000000       0.00000000       0.00000000       0.00000000       1.79669654
Ir       0.00000000       0.00000000       3.00181818       0.00000000       0.00000000      -1.79669654
2
Properties=species:S:1:pos:R:3:forces:R:3 energy=-4.302340530962905 pbc="F F F"
Ir       0.00000000       0.00000000       0.00000000       0.00000000       0.00000000       1.74065232
Ir       0.00000000       0.00000000       3.06060606       0.00000000       0.00000000      -1.74065232
2
Properties=species:S:1:pos:R:3:forces:R:3 energy=-4.201726470317393 pbc="F F F"
Ir       0.00000000       0.00000000       0.00000000       0.00000000       0.00000000       1.68193185
Ir       0.00000000       0.00000000       3.11939394       0.00000000       0.00000000      -1.68193185
2
Properties=species:S:1:pos:R:3:forces:R:3 energy=-4.10464331484253 pbc="F F F"
Ir       0.00000000       0.00000000       0.00000000       0.00000000       0.00000000       1.62022281
Ir       0.00000000       0.00000000       3.17818182       0.00000000       0.00000000      -1.62022281
2
Properties=species:S:1:pos:R:3:forces:R:3 energy=-4.0113411372772445 pbc="F F F"
Ir       0.00000000       0.00000000       0.00000000       0.00000000       0.00000000       1.55264270
Ir       0.00000000       0.00000000       3.23696970       0.00000000       0.00000000      -1.55264270
2
Properties=species:S:1:pos:R:3:forces:R:3 energy=-3.922299289997856 pbc="F F F"
Ir       0.00000000       0.00000000       0.00000000       0.00000000       0.00000000       1.47441053
Ir       0.00000000       0.00000000       3.29575758       0.00000000       0.00000000      -1.47441053
2
Properties=species:S:1:pos:R:3:forces:R:3 energy=-3.8382860633559783 pbc="F F F"
Ir       0.00000000       0.00000000       0.00000000       0.00000000       0.00000000       1.38096333
Ir       0.00000000       0.00000000       3.35454545       0.00000000       0.00000000      -1.38096333
2
Properties=species:S:1:pos:R:3:forces:R:3 energy=-3.7602696668494944 pbc="F F F"
Ir       0.00000000       0.00000000       0.00000000       0.00000000       0.00000000       1.27042258
Ir       0.00000000       0.00000000       3.41333333       0.00000000       0.00000000      -1.27042258
2
Properties=species:S:1:pos:R:3:forces:R:3 energy=-3.689210393813926 pbc="F F F"
Ir       0.00000000       0.00000000       0.00000000       0.00000000       0.00000000       1.14494264
Ir       0.00000000       0.00000000       3.47212121       0.00000000       0.00000000      -1.14494264
2
Properties=species:S:1:pos:R:3:forces:R:3 energy=-3.6258325055273892 pbc="F F F"
Ir       0.00000000       0.00000000       0.00000000       0.00000000       0.00000000       1.01033473
Ir       0.00000000       0.00000000       3.53090909       0.00000000       0.00000000      -1.01033473
2
Properties=species:S:1:pos:R:3:forces:R:3 energy=-3.5704477824551253 pbc="F F F"
Ir       0.00000000       0.00000000       0.00000000       0.00000000       0.00000000       0.87427974
Ir       0.00000000       0.00000000       3.58969697       0.00000000       0.00000000      -0.87427974
2
Properties=species:S:1:pos:R:3:forces:R:3 energy=-3.5229171285228813 pbc="F F F"
Ir       0.00000000       0.00000000       0.00000000       0.00000000       0.00000000       0.74430496
Ir       0.00000000       0.00000000       3.64848485       0.00000000       0.00000000      -0.74430496
2
Properties=species:S:1:pos:R:3:forces:R:3 energy=-3.482700267551412 pbc="F F F"
Ir       0.00000000       0.00000000       0.00000000       0.00000000       0.00000000       0.62629014
Ir       0.00000000       0.00000000       3.70727273       0.00000000       0.00000000      -0.62629014
2
Properties=species:S:1:pos:R:3:forces:R:3 energy=-3.44897205584512 pbc="F F F"
Ir       0.00000000       0.00000000       0.00000000       0.00000000       0.00000000       0.52395904
Ir       0.00000000       0.00000000       3.76606061       0.00000000       0.00000000      -0.52395904
2
Properties=species:S:1:pos:R:3:forces:R:3 energy=-3.420750894771527 pbc="F F F"
Ir       0.00000000       0.00000000       0.00000000       0.00000000       0.00000000       0.43915096
Ir       0.00000000       0.00000000       3.82484848       0.00000000       0.00000000      -0.43915096
2
Properties=species:S:1:pos:R:3:forces:R:3 energy=-3.3969850026089468 pbc="F F F"
Ir       0.00000000       0.00000000       0.00000000       0.00000000       0.00000000       0.37236074
Ir       0.00000000       0.00000000       3.88363636       0.00000000       0.00000000      -0.37236074
2
Properties=species:S:1:pos:R:3:forces:R:3 energy=-3.3766229294251 pbc="F F F"
Ir       0.00000000       0.00000000       0.00000000       0.00000000       0.00000000       0.32325408
Ir       0.00000000       0.00000000       3.94242424       0.00000000       0.00000000      -0.32325408
2
Properties=species:S:1:pos:R:3:forces:R:3 energy=-3.3586503685729614 pbc="F F F"
Ir       0.00000000       0.00000000       0.00000000       0.00000000       0.00000000       0.29087511
Ir       0.00000000       0.00000000       4.00121212       0.00000000       0.00000000      -0.29087511
2
Properties=species:S:1:pos:R:3:forces:R:3 energy=-3.342125802268206 pbc="F F F"
Ir       0.00000000       0.00000000       0.00000000       0.00000000       0.00000000       0.27365696
Ir       0.00000000       0.00000000       4.06000000       0.00000000       0.00000000      -0.27365696
2
Properties=species:S:1:pos:R:3:forces:R:3 energy=-3.3262211309501404 pbc="F F F"
Ir       0.00000000       0.00000000       0.00000000       0.00000000       0.00000000       0.26936269
Ir       0.00000000       0.00000000       4.11878788       0.00000000       0.00000000      -0.26936269
2
Properties=species:S:1:pos:R:3:forces:R:3 energy=-3.3102579160735512 pbc="F F F"
Ir       0.00000000       0.00000000       0.00000000       0.00000000       0.00000000       0.27512002
Ir       0.00000000       0.00000000       4.17757576       0.00000000       0.00000000      -0.27512002
2
Properties=species:S:1:pos:R:3:forces:R:3 energy=-3.2937418082506764 pbc="F F F"
Ir       0.00000000       0.00000000       0.00000000       0.00000000       0.00000000       0.28760359
Ir       0.00000000       0.00000000       4.23636364       0.00000000       0.00000000      -0.28760359
2
Properties=species:S:1:pos:R:3:forces:R:3 energy=-3.2763787343720074 pbc="F F F"
Ir       0.00000000       0.00000000       0.00000000       0.00000000       0.00000000       0.30335051
Ir       0.00000000       0.00000000       4.29515152       0.00000000       0.00000000      -0.30335051
2
Properties=species:S:1:pos:R:3:forces:R:3 energy=-3.2580751645352684 pbc="F F F"
Ir       0.00000000       0.00000000       0.00000000       0.00000000       0.00000000       0.31913289
Ir       0.00000000       0.00000000       4.35393939       0.00000000       0.00000000      -0.31913289
2
Properties=species:S:1:pos:R:3:forces:R:3 energy=-3.2389085046240136 pbc="F F F"
Ir       0.00000000       0.00000000       0.00000000       0.00000000       0.00000000       0.33230561
Ir       0.00000000       0.00000000       4.41272727       0.00000000       0.00000000      -0.33230561
2
Properties=species:S:1:pos:R:3:forces:R:3 energy=-3.2190914000450306 pbc="F F F"
Ir       0.00000000       0.00000000       0.00000000       0.00000000       0.00000000       0.34104177
Ir       0.00000000       0.00000000       4.47151515       0.00000000       0.00000000      -0.34104177
2
Properties=species:S:1:pos:R:3:forces:R:3 energy=-3.198915304216916 pbc="F F F"
Ir       0.00000000       0.00000000       0.00000000       0.00000000       0.00000000       0.34443727
Ir       0.00000000       0.00000000       4.53030303       0.00000000       0.00000000      -0.34443727
2
Properties=species:S:1:pos:R:3:forces:R:3 energy=-3.178699791279314 pbc="F F F"
Ir       0.00000000       0.00000000       0.00000000       0.00000000       0.00000000       0.34244415
Ir       0.00000000       0.00000000       4.58909091       0.00000000       0.00000000      -0.34244415
2
Properties=species:S:1:pos:R:3:forces:R:3 energy=-3.1587466941945275 pbc="F F F"
Ir       0.00000000       0.00000000       0.00000000       0.00000000       0.00000000       0.33567023
Ir       0.00000000       0.00000000       4.64787879       0.00000000       0.00000000      -0.33567023
2
Properties=species:S:1:pos:R:3:forces:R:3 energy=-3.1393076132964968 pbc="F F F"
Ir       0.00000000       0.00000000       0.00000000       0.00000000       0.00000000       0.32509100
Ir       0.00000000       0.00000000       4.70666667       0.00000000       0.00000000      -0.32509100
2
Properties=species:S:1:pos:R:3:forces:R:3 energy=-3.1205768469287194 pbc="F F F"
Ir       0.00000000       0.00000000       0.00000000       0.00000000       0.00000000       0.31178167
Ir       0.00000000       0.00000000       4.76545455       0.00000000       0.00000000      -0.31178167
2
Properties=species:S:1:pos:R:3:forces:R:3 energy=-3.102683962454434 pbc="F F F"
Ir       0.00000000       0.00000000       0.00000000       0.00000000       0.00000000       0.29670471
Ir       0.00000000       0.00000000       4.82424242       0.00000000       0.00000000      -0.29670471
2
Properties=species:S:1:pos:R:3:forces:R:3 energy=-3.085712097466409 pbc="F F F"
Ir       0.00000000       0.00000000       0.00000000       0.00000000       0.00000000       0.28061429
Ir       0.00000000       0.00000000       4.88303030       0.00000000       0.00000000      -0.28061429
2
Properties=species:S:1:pos:R:3:forces:R:3 energy=-3.069700239434608 pbc="F F F"
Ir       0.00000000       0.00000000       0.00000000       0.00000000       0.00000000       0.26403967
Ir       0.00000000       0.00000000       4.94181818       0.00000000       0.00000000      -0.26403967
2
Properties=species:S:1:pos:R:3:forces:R:3 energy=-3.0546687333263254 pbc="F F F"
Ir       0.00000000       0.00000000       0.00000000       0.00000000       0.00000000       0.24732268
Ir       0.00000000       0.00000000       5.00060606       0.00000000       0.00000000      -0.24732268
2
Properties=species:S:1:pos:R:3:forces:R:3 energy=-3.0406200285401503 pbc="F F F"
Ir       0.00000000       0.00000000       0.00000000       0.00000000       0.00000000       0.23062225
Ir       0.00000000       0.00000000       5.05939394       0.00000000       0.00000000      -0.23062225
2
Properties=species:S:1:pos:R:3:forces:R:3 energy=-3.0275521864015973 pbc="F F F"
Ir       0.00000000       0.00000000       0.00000000       0.00000000       0.00000000       0.21395367
Ir       0.00000000       0.00000000       5.11818182       0.00000000       0.00000000      -0.21395367
2
Properties=species:S:1:pos:R:3:forces:R:3 energy=-3.01546631865639 pbc="F F F"
Ir       0.00000000       0.00000000       0.00000000       0.00000000       0.00000000       0.19721179
Ir       0.00000000       0.00000000       5.17696970       0.00000000       0.00000000      -0.19721179
2
Properties=species:S:1:pos:R:3:forces:R:3 energy=-3.004370430678127 pbc="F F F"
Ir       0.00000000       0.00000000       0.00000000       0.00000000       0.00000000       0.18023950
Ir       0.00000000       0.00000000       5.23575758       0.00000000       0.00000000      -0.18023950
2
Properties=species:S:1:pos:R:3:forces:R:3 energy=-2.9942825335811 pbc="F F F"
Ir       0.00000000       0.00000000       0.00000000       0.00000000       0.00000000       0.16290537
Ir       0.00000000       0.00000000       5.29454545       0.00000000       0.00000000      -0.16290537
2
Properties=species:S:1:pos:R:3:forces:R:3 energy=-2.985223799773584 pbc="F F F"
Ir       0.00000000       0.00000000       0.00000000       0.00000000       0.00000000       0.14519933
Ir       0.00000000       0.00000000       5.35333333       0.00000000       0.00000000      -0.14519933
2
Properties=species:S:1:pos:R:3:forces:R:3 energy=-2.977214261919951 pbc="F F F"
Ir       0.00000000       0.00000000       0.00000000       0.00000000       0.00000000       0.12725464
Ir       0.00000000       0.00000000       5.41212121       0.00000000       0.00000000      -0.12725464
2
Properties=species:S:1:pos:R:3:forces:R:3 energy=-2.970260262287171 pbc="F F F"
Ir       0.00000000       0.00000000       0.00000000       0.00000000       0.00000000       0.10937065
Ir       0.00000000       0.00000000       5.47090909       0.00000000       0.00000000      -0.10937065
2
Properties=species:S:1:pos:R:3:forces:R:3 energy=-2.9643463750235264 pbc="F F F"
Ir       0.00000000       0.00000000       0.00000000       0.00000000       0.00000000       0.09191845
Ir       0.00000000       0.00000000       5.52969697       0.00000000       0.00000000      -0.09191845
2
Properties=species:S:1:pos:R:3:forces:R:3 energy=-2.959436151508657 pbc="F F F"
Ir       0.00000000       0.00000000       0.00000000       0.00000000       0.00000000       0.07530750
Ir       0.00000000       0.00000000       5.58848485       0.00000000       0.00000000      -0.07530750
2
Properties=species:S:1:pos:R:3:forces:R:3 energy=-2.9554681559367353 pbc="F F F"
Ir       0.00000000       0.00000000       0.00000000       0.00000000       0.00000000       0.05992082
Ir       0.00000000       0.00000000       5.64727273       0.00000000       0.00000000      -0.05992082
2
Properties=species:S:1:pos:R:3:forces:R:3 energy=-2.952360953099697 pbc="F F F"
Ir       0.00000000       0.00000000       0.00000000       0.00000000       0.00000000       0.04610069
Ir       0.00000000       0.00000000       5.70606061       0.00000000       0.00000000      -0.04610069
2
Properties=species:S:1:pos:R:3:forces:R:3 energy=-2.950009590713262 pbc="F F F"
Ir       0.00000000       0.00000000       0.00000000       0.00000000       0.00000000       0.03411443
Ir       0.00000000       0.00000000       5.76484848       0.00000000       0.00000000      -0.03411443
2
Properties=species:S:1:pos:R:3:forces:R:3 energy=-2.948307138660474 pbc="F F F"
Ir       0.00000000       0.00000000       0.00000000       0.00000000       0.00000000       0.02422884
Ir       0.00000000       0.00000000       5.82363636       0.00000000       0.00000000      -0.02422884
2
Properties=species:S:1:pos:R:3:forces:R:3 energy=-2.947117929882 pbc="F F F"
Ir       0.00000000       0.00000000       0.00000000       0.00000000       0.00000000       0.01668065
Ir       0.00000000       0.00000000       5.88242424       0.00000000       0.00000000      -0.01668065
2
Properties=species:S:1:pos:R:3:forces:R:3 energy=-2.9462950488796884 pbc="F F F"
Ir       0.00000000       0.00000000       0.00000000       0.00000000       0.00000000       0.01172909
Ir       0.00000000       0.00000000       5.94121212       0.00000000       0.00000000      -0.01172909
2
Properties=species:S:1:pos:R:3:forces:R:3 energy=-2.9456820172776923 pbc="F F F"
Ir       0.00000000       0.00000000       0.00000000       0.00000000       0.00000000       0.00964539
Ir       0.00000000       0.00000000       6.00000000       0.00000000       0.00000000      -0.00964539
