2
Properties=species:S:1:pos:R:3:forces:R:3 energy=125.40039072809259 pbc="F F F"
Li       0.00000000       0.00000000       0.00000000       0.00000000       0.00000000   -1507.47680664
Li       0.00000000       0.00000000       0.18000000       0.00000000       0.00000000    1507.47680664
2
Properties=species:S:1:pos:R:3:forces:R:3 energy=65.95525370416681 pbc="F F F"
Li       0.00000000       0.00000000       0.00000000       0.00000000       0.00000000    -658.26263428
Li       0.00000000       0.00000000       0.23878788       0.00000000       0.00000000     658.26263428
2
Properties=species:S:1:pos:R:3:forces:R:3 energy=38.34461222467461 pbc="F F F"
Li       0.00000000       0.00000000       0.00000000       0.00000000       0.00000000    -327.38534546
Li       0.00000000       0.00000000       0.29757576       0.00000000       0.00000000     327.38534546
2
Properties=species:S:1:pos:R:3:forces:R:3 energy=24.03412829376341 pbc="F F F"
Li       0.00000000       0.00000000       0.00000000       0.00000000       0.00000000    -177.54899597
Li       0.00000000       0.00000000       0.35636364       0.00000000       0.00000000     177.54899597
2
Properties=species:S:1:pos:R:3:forces:R:3 energy=16.046745409721197 pbc="F F F"
Li       0.00000000       0.00000000       0.00000000       0.00000000       0.00000000    -102.18180847
Li       0.00000000       0.00000000       0.41515152       0.00000000       0.00000000     102.18180847
2
Properties=species:S:1:pos:R:3:forces:R:3 energy=11.360530016944953 pbc="F F F"
Li       0.00000000       0.00000000       0.00000000       0.00000000       0.00000000     -61.15881348
Li       0.00000000       0.00000000       0.47393939       0.00000000       0.00000000      61.15881348
2
Properties=species:S:1:pos:R:3:forces:R:3 energy=8.516805780406695 pbc="F F F"
Li       0.00000000       0.00000000       0.00000000       0.00000000       0.00000000     -37.73030853
Li       0.00000000       0.00000000       0.53272727       0.00000000       0.00000000      37.73030853
2
Properties=species:S:1:pos:R:3:forces:R:3 energy=6.725338139123296 pbc="F F F"
Li       0.00000000       0.00000000       0.00000000       0.00000000       0.00000000     -24.58404732
Li       0.00000000       0.00000000       0.59151515       0.00000000       0.00000000      24.58404732
2
Properties=species:S:1:pos:R:3:forces:R:3 energy=5.490166388581448 pbc="F F F"
Li       0.00000000       0.00000000       0.00000000       0.00000000       0.00000000     -18.42092896
Li       0.00000000       0.00000000       0.65030303       0.00000000       0.00000000      18.42092896
2
Properties=species:S:1:pos:R:3:forces:R:3 energy=4.465397628927832 pbc="F F F"
Li       0.00000000       0.00000000       0.00000000       0.00000000       0.00000000     -17.01237869
Li       0.00000000       0.00000000       0.70909091       0.00000000       0.00000000      17.01237869
2
Properties=species:S:1:pos:R:3:forces:R:3 energy=3.462219852225118 pbc="F F F"
Li       0.00000000       0.00000000       0.00000000       0.00000000       0.00000000     -16.97462463
Li       0.00000000       0.00000000       0.76787879       0.00000000       0.00000000      16.97462463
2
Properties=species:S:1:pos:R:3:forces:R:3 energy=2.510211043233267 pbc="F F F"
Li       0.00000000       0.00000000       0.00000000       0.00000000       0.00000000     -15.14773178
Li       0.00000000       0.00000000       0.82666667       0.00000000       0.00000000      15.14773178
2
Properties=species:S:1:pos:R:3:forces:R:3 energy=1.6835196374783759 pbc="F F F"
Li       0.00000000       0.00000000       0.00000000       0.00000000       0.00000000     -12.93218708
Li       0.00000000       0.00000000       0.88545455       0.00000000       0.00000000      12.93218708
2
Properties=species:S:1:pos:R:3:forces:R:3 energy=1.0357526409668898 pbc="F F F"
Li       0.00000000       0.00000000       0.00000000       0.00000000       0.00000000      -8.57483196
Li       0.00000000       0.00000000       0.94424242       0.00000000       0.00000000       8.57483196
2
Properties=species:S:1:pos:R:3:forces:R:3 energy=0.7018830749362038 pbc="F F F"
Li       0.00000000       0.00000000       0.00000000       0.00000000       0.00000000      -2.90648317
Li       0.00000000       0.00000000       1.00303030       0.00000000       0.00000000       2.90648317
2
Properties=species:S:1:pos:R:3:forces:R:3 energy=0.6588524342281991 pbc="F F F"
Li       0.00000000       0.00000000       0.00000000       0.00000000       0.00000000       1.06592011
Li       0.00000000       0.00000000       1.06181818       0.00000000       0.00000000      -1.06592011
2
Properties=species:S:1:pos:R:3:forces:R:3 energy=0.7804737335238616 pbc="F F F"
Li       0.00000000       0.00000000       0.00000000       0.00000000       0.00000000       2.66945243
Li       0.00000000       0.00000000       1.12060606       0.00000000       0.00000000      -2.66945243
2
Properties=species:S:1:pos:R:3:forces:R:3 energy=0.928916286087594 pbc="F F F"
Li       0.00000000       0.00000000       0.00000000       0.00000000       0.00000000       2.06442833
Li       0.00000000       0.00000000       1.17939394       0.00000000       0.00000000      -2.06442833
2
Properties=species:S:1:pos:R:3:forces:R:3 energy=0.9965532951507234 pbc="F F F"
Li       0.00000000       0.00000000       0.00000000       0.00000000       0.00000000       0.12022579
Li       0.00000000       0.00000000       1.23818182       0.00000000       0.00000000      -0.12022579
2
Properties=species:S:1:pos:R:3:forces:R:3 energy=0.9453308942639372 pbc="F F F"
Li       0.00000000       0.00000000       0.00000000       0.00000000       0.00000000      -1.71652758
Li       0.00000000       0.00000000       1.29696970       0.00000000       0.00000000       1.71652758
2
Properties=species:S:1:pos:R:3:forces:R:3 energy=0.8172220994064376 pbc="F F F"
Li       0.00000000       0.00000000       0.00000000       0.00000000       0.00000000      -2.47329712
Li       0.00000000       0.00000000       1.35575758       0.00000000       0.00000000       2.47329712
2
Properties=species:S:1:pos:R:3:forces:R:3 energy=0.6665963908719897 pbc="F F F"
Li       0.00000000       0.00000000       0.00000000       0.00000000       0.00000000      -2.60624719
Li       0.00000000       0.00000000       1.41454545       0.00000000       0.00000000       2.60624719
2
Properties=species:S:1:pos:R:3:forces:R:3 energy=0.5122134814674622 pbc="F F F"
Li       0.00000000       0.00000000       0.00000000       0.00000000       0.00000000      -2.65292883
Li       0.00000000       0.00000000       1.47333333       0.00000000       0.00000000       2.65292883
2
Properties=species:S:1:pos:R:3:forces:R:3 energy=0.3533188935994179 pbc="F F F"
Li       0.00000000       0.00000000       0.00000000       0.00000000       0.00000000      -2.76274896
Li       0.00000000       0.00000000       1.53212121       0.00000000       0.00000000       2.76274896
2
Properties=species:S:1:pos:R:3:forces:R:3 energy=0.18689433258769422 pbc="F F F"
Li       0.00000000       0.00000000       0.00000000       0.00000000       0.00000000      -2.89711499
Li       0.00000000       0.00000000       1.59090909       0.00000000       0.00000000       2.89711499
2
Properties=species:S:1:pos:R:3:forces:R:3 energy=0.013495406172415965 pbc="F F F"
Li       0.00000000       0.00000000       0.00000000       0.00000000       0.00000000      -2.99142861
Li       0.00000000       0.00000000       1.64969697       0.00000000       0.00000000       2.99142861
2
Properties=species:S:1:pos:R:3:forces:R:3 energy=-0.16331421792597955 pbc="F F F"
Li       0.00000000       0.00000000       0.00000000       0.00000000       0.00000000      -3.00943637
Li       0.00000000       0.00000000       1.70848485       0.00000000       0.00000000       3.00943637
2
Properties=species:S:1:pos:R:3:forces:R:3 energy=-0.3386091252655836 pbc="F F F"
Li       0.00000000       0.00000000       0.00000000       0.00000000       0.00000000      -2.93979669
Li       0.00000000       0.00000000       1.76727273       0.00000000       0.00000000       2.93979669
2
Properties=species:S:1:pos:R:3:forces:R:3 energy=-0.5074170220593837 pbc="F F F"
Li       0.00000000       0.00000000       0.00000000       0.00000000       0.00000000      -2.79154897
Li       0.00000000       0.00000000       1.82606061       0.00000000       0.00000000       2.79154897
2
Properties=species:S:1:pos:R:3:forces:R:3 energy=-0.6656348934115045 pbc="F F F"
Li       0.00000000       0.00000000       0.00000000       0.00000000       0.00000000      -2.58219266
Li       0.00000000       0.00000000       1.88484848       0.00000000       0.00000000       2.58219266
2
Properties=species:S:1:pos:R:3:forces:R:3 energy=-0.8100542284612494 pbc="F F F"
Li       0.00000000       0.00000000       0.00000000       0.00000000       0.00000000      -2.32332659
Li       0.00000000       0.00000000       1.94363636       0.00000000       0.00000000       2.32332659
2
Properties=species:S:1:pos:R:3:forces:R:3 energy=-0.9379613198467789 pbc="F F F"
Li       0.00000000       0.00000000       0.00000000       0.00000000       0.00000000      -2.02187729
Li       0.00000000       0.00000000       2.00242424       0.00000000       0.00000000       2.02187729
2
Properties=species:S:1:pos:R:3:forces:R:3 energy=-1.0472484859722624 pbc="F F F"
Li       0.00000000       0.00000000       0.00000000       0.00000000       0.00000000      -1.69404769
Li       0.00000000       0.00000000       2.06121212       0.00000000       0.00000000       1.69404769
2
Properties=species:S:1:pos:R:3:forces:R:3 energy=-1.137260556750086 pbc="F F F"
Li       0.00000000       0.00000000       0.00000000       0.00000000       0.00000000      -1.37253213
Li       0.00000000       0.00000000       2.12000000       0.00000000       0.00000000       1.37253213
2
Properties=species:S:1:pos:R:3:forces:R:3 energy=-1.2094544981977138 pbc="F F F"
Li       0.00000000       0.00000000       0.00000000       0.00000000       0.00000000      -1.09260345
Li       0.00000000       0.00000000       2.17878788       0.00000000       0.00000000       1.09260345
2
Properties=species:S:1:pos:R:3:forces:R:3 energy=-1.2668641201300233 pbc="F F F"
Li       0.00000000       0.00000000       0.00000000       0.00000000       0.00000000      -0.86991060
Li       0.00000000       0.00000000       2.23757576       0.00000000       0.00000000       0.86991060
2
Properties=species:S:1:pos:R:3:forces:R:3 energy=-1.3126822622259604 pbc="F F F"
Li       0.00000000       0.00000000       0.00000000       0.00000000       0.00000000      -0.69519538
Li       0.00000000       0.00000000       2.29636364       0.00000000       0.00000000       0.69519538
2
Properties=species:S:1:pos:R:3:forces:R:3 energy=-1.349141669057609 pbc="F F F"
Li       0.00000000       0.00000000       0.00000000       0.00000000       0.00000000      -0.54819471
Li       0.00000000       0.00000000       2.35515152       0.00000000       0.00000000       0.54819471
2
Properties=species:S:1:pos:R:3:forces:R:3 energy=-1.3773579074286388 pbc="F F F"
Li       0.00000000       0.00000000       0.00000000       0.00000000       0.00000000      -0.41283202
Li       0.00000000       0.00000000       2.41393939       0.00000000       0.00000000       0.41283202
2
Properties=species:S:1:pos:R:3:forces:R:3 energy=-1.3977741452412025 pbc="F F F"
Li       0.00000000       0.00000000       0.00000000       0.00000000       0.00000000      -0.28245637
Li       0.00000000       0.00000000       2.47272727       0.00000000       0.00000000       0.28245637
2
Properties=species:S:1:pos:R:3:forces:R:3 energy=-1.4106662632706684 pbc="F F F"
Li       0.00000000       0.00000000       0.00000000       0.00000000       0.00000000      -0.15716124
Li       0.00000000       0.00000000       2.53151515       0.00000000       0.00000000       0.15716124
2
Properties=species:S:1:pos:R:3:forces:R:3 energy=-1.4163994114919725 pbc="F F F"
Li       0.00000000       0.00000000       0.00000000       0.00000000       0.00000000      -0.03932815
Li       0.00000000       0.00000000       2.59030303       0.00000000       0.00000000       0.03932815
2
Properties=species:S:1:pos:R:3:forces:R:3 energy=-1.4154735124546276 pbc="F F F"
Li       0.00000000       0.00000000       0.00000000       0.00000000       0.00000000       0.06917213
Li       0.00000000       0.00000000       2.64909091       0.00000000       0.00000000      -0.06917213
2
Properties=species:S:1:pos:R:3:forces:R:3 energy=-1.4084682026389141 pbc="F F F"
Li       0.00000000       0.00000000       0.00000000       0.00000000       0.00000000       0.16736963
Li       0.00000000       0.00000000       2.70787879       0.00000000       0.00000000      -0.16736963
2
Properties=species:S:1:pos:R:3:forces:R:3 energy=-1.3960127751255562 pbc="F F F"
Li       0.00000000       0.00000000       0.00000000       0.00000000       0.00000000       0.25439554
Li       0.00000000       0.00000000       2.76666667       0.00000000       0.00000000      -0.25439554
2
Properties=species:S:1:pos:R:3:forces:R:3 energy=-1.3788146215181742 pbc="F F F"
Li       0.00000000       0.00000000       0.00000000       0.00000000       0.00000000       0.32823867
Li       0.00000000       0.00000000       2.82545455       0.00000000       0.00000000      -0.32823867
2
Properties=species:S:1:pos:R:3:forces:R:3 energy=-1.357754176157956 pbc="F F F"
Li       0.00000000       0.00000000       0.00000000       0.00000000       0.00000000       0.38495862
Li       0.00000000       0.00000000       2.88424242       0.00000000       0.00000000      -0.38495862
2
Properties=species:S:1:pos:R:3:forces:R:3 energy=-1.3340072287412672 pbc="F F F"
Li       0.00000000       0.00000000       0.00000000       0.00000000       0.00000000       0.41839340
Li       0.00000000       0.00000000       2.94303030       0.00000000       0.00000000      -0.41839340
2
Properties=species:S:1:pos:R:3:forces:R:3 energy=-1.3091893989988228 pbc="F F F"
Li       0.00000000       0.00000000       0.00000000       0.00000000       0.00000000       0.41964638
Li       0.00000000       0.00000000       3.00181818       0.00000000       0.00000000      -0.41964638
2
Properties=species:S:1:pos:R:3:forces:R:3 energy=-1.2855170935458904 pbc="F F F"
Li       0.00000000       0.00000000       0.00000000       0.00000000       0.00000000       0.37771130
Li       0.00000000       0.00000000       3.06060606       0.00000000       0.00000000      -0.37771130
2
Properties=species:S:1:pos:R:3:forces:R:3 energy=-1.2656902073781446 pbc="F F F"
Li       0.00000000       0.00000000       0.00000000       0.00000000       0.00000000       0.29066199
Li       0.00000000       0.00000000       3.11939394       0.00000000       0.00000000      -0.29066199
2
Properties=species:S:1:pos:R:3:forces:R:3 energy=-1.2515557336743595 pbc="F F F"
Li       0.00000000       0.00000000       0.00000000       0.00000000       0.00000000       0.19438577
Li       0.00000000       0.00000000       3.17818182       0.00000000       0.00000000      -0.19438577
2
Properties=species:S:1:pos:R:3:forces:R:3 energy=-1.2415890078104859 pbc="F F F"
Li       0.00000000       0.00000000       0.00000000       0.00000000       0.00000000       0.15999511
Li       0.00000000       0.00000000       3.23696970       0.00000000       0.00000000      -0.15999511
2
Properties=species:S:1:pos:R:3:forces:R:3 energy=-1.2309352463452652 pbc="F F F"
Li       0.00000000       0.00000000       0.00000000       0.00000000       0.00000000       0.21491435
Li       0.00000000       0.00000000       3.29575758       0.00000000       0.00000000      -0.21491435
2
Properties=species:S:1:pos:R:3:forces:R:3 energy=-1.2154743772588896 pbc="F F F"
Li       0.00000000       0.00000000       0.00000000       0.00000000       0.00000000       0.31299889
Li       0.00000000       0.00000000       3.35454545       0.00000000       0.00000000      -0.31299889
2
Properties=species:S:1:pos:R:3:forces:R:3 energy=-1.194350654710549 pbc="F F F"
Li       0.00000000       0.00000000       0.00000000       0.00000000       0.00000000       0.40131861
Li       0.00000000       0.00000000       3.41333333       0.00000000       0.00000000      -0.40131861
2
Properties=species:S:1:pos:R:3:forces:R:3 energy=-1.1689013010921074 pbc="F F F"
Li       0.00000000       0.00000000       0.00000000       0.00000000       0.00000000       0.45911902
Li       0.00000000       0.00000000       3.47212121       0.00000000       0.00000000      -0.45911902
2
Properties=species:S:1:pos:R:3:forces:R:3 energy=-1.140948224509978 pbc="F F F"
Li       0.00000000       0.00000000       0.00000000       0.00000000       0.00000000       0.48757896
Li       0.00000000       0.00000000       3.53090909       0.00000000       0.00000000      -0.48757896
2
Properties=species:S:1:pos:R:3:forces:R:3 energy=-1.1119974871613159 pbc="F F F"
Li       0.00000000       0.00000000       0.00000000       0.00000000       0.00000000       0.49442175
Li       0.00000000       0.00000000       3.58969697       0.00000000       0.00000000      -0.49442175
2
Properties=species:S:1:pos:R:3:forces:R:3 energy=-1.083089331264235 pbc="F F F"
Li       0.00000000       0.00000000       0.00000000       0.00000000       0.00000000       0.48724446
Li       0.00000000       0.00000000       3.64848485       0.00000000       0.00000000      -0.48724446
2
Properties=species:S:1:pos:R:3:forces:R:3 energy=-1.054867528511548 pbc="F F F"
Li       0.00000000       0.00000000       0.00000000       0.00000000       0.00000000       0.47193056
Li       0.00000000       0.00000000       3.70727273       0.00000000       0.00000000      -0.47193056
2
Properties=species:S:1:pos:R:3:forces:R:3 energy=-1.0276788438791193 pbc="F F F"
Li       0.00000000       0.00000000       0.00000000       0.00000000       0.00000000       0.45264158
Li       0.00000000       0.00000000       3.76606061       0.00000000       0.00000000      -0.45264158
2
Properties=species:S:1:pos:R:3:forces:R:3 energy=-1.0016711786641628 pbc="F F F"
Li       0.00000000       0.00000000       0.00000000       0.00000000       0.00000000       0.43211994
Li       0.00000000       0.00000000       3.82484848       0.00000000       0.00000000      -0.43211994
2
Properties=species:S:1:pos:R:3:forces:R:3 energy=-0.9768636893049842 pbc="F F F"
Li       0.00000000       0.00000000       0.00000000       0.00000000       0.00000000       0.41198903
Li       0.00000000       0.00000000       3.88363636       0.00000000       0.00000000      -0.41198903
2
Properties=species:S:1:pos:R:3:forces:R:3 energy=-0.9532073557355851 pbc="F F F"
Li       0.00000000       0.00000000       0.00000000       0.00000000       0.00000000       0.39304435
Li       0.00000000       0.00000000       3.94242424       0.00000000       0.00000000      -0.39304435
2
Properties=species:S:1:pos:R:3:forces:R:3 energy=-0.9306237518615539 pbc="F F F"
Li       0.00000000       0.00000000       0.00000000       0.00000000       0.00000000       0.37549615
Li       0.00000000       0.00000000       4.00121212       0.00000000       0.00000000      -0.37549615
2
Properties=species:S:1:pos:R:3:forces:R:3 energy=-0.9090343757824416 pbc="F F F"
Li       0.00000000       0.00000000       0.00000000       0.00000000       0.00000000       0.35917127
Li       0.00000000       0.00000000       4.06000000       0.00000000       0.00000000      -0.35917127
2
Properties=species:S:1:pos:R:3:forces:R:3 energy=-0.888377742942366 pbc="F F F"
Li       0.00000000       0.00000000       0.00000000       0.00000000       0.00000000       0.34368125
Li       0.00000000       0.00000000       4.11878788       0.00000000       0.00000000      -0.34368125
2
Properties=species:S:1:pos:R:3:forces:R:3 energy=-0.8686185219202338 pbc="F F F"
Li       0.00000000       0.00000000       0.00000000       0.00000000       0.00000000       0.32855493
Li       0.00000000       0.00000000       4.17757576       0.00000000       0.00000000      -0.32855493
2
Properties=species:S:1:pos:R:3:forces:R:3 energy=-0.8497491511869879 pbc="F F F"
Li       0.00000000       0.00000000       0.00000000       0.00000000       0.00000000       0.31334722
Li       0.00000000       0.00000000       4.23636364       0.00000000       0.00000000      -0.31334722
2
Properties=species:S:1:pos:R:3:forces:R:3 energy=-0.8317843927483282 pbc="F F F"
Li       0.00000000       0.00000000       0.00000000       0.00000000       0.00000000       0.29772842
Li       0.00000000       0.00000000       4.29515152       0.00000000       0.00000000      -0.29772842
2
Properties=species:S:1:pos:R:3:forces:R:3 energy=-0.8147549790464715 pbc="F F F"
Li       0.00000000       0.00000000       0.00000000       0.00000000       0.00000000       0.28153718
Li       0.00000000       0.00000000       4.35393939       0.00000000       0.00000000      -0.28153718
2
Properties=species:S:1:pos:R:3:forces:R:3 energy=-0.7986936870640539 pbc="F F F"
Li       0.00000000       0.00000000       0.00000000       0.00000000       0.00000000       0.26479349
Li       0.00000000       0.00000000       4.41272727       0.00000000       0.00000000      -0.26479349
2
Properties=species:S:1:pos:R:3:forces:R:3 energy=-0.7836285889120873 pbc="F F F"
Li       0.00000000       0.00000000       0.00000000       0.00000000       0.00000000       0.24768351
Li       0.00000000       0.00000000       4.47151515       0.00000000       0.00000000      -0.24768351
2
Properties=species:S:1:pos:R:3:forces:R:3 energy=-0.7695731520432936 pbc="F F F"
Li       0.00000000       0.00000000       0.00000000       0.00000000       0.00000000       0.23051098
Li       0.00000000       0.00000000       4.53030303       0.00000000       0.00000000      -0.23051098
2
Properties=species:S:1:pos:R:3:forces:R:3 energy=-0.7565201509067887 pbc="F F F"
Li       0.00000000       0.00000000       0.00000000       0.00000000       0.00000000       0.21364863
Li       0.00000000       0.00000000       4.58909091       0.00000000       0.00000000      -0.21364863
2
Properties=species:S:1:pos:R:3:forces:R:3 energy=-0.7444398177882002 pbc="F F F"
Li       0.00000000       0.00000000       0.00000000       0.00000000       0.00000000       0.19748414
Li       0.00000000       0.00000000       4.64787879       0.00000000       0.00000000      -0.19748414
2
Properties=species:S:1:pos:R:3:forces:R:3 energy=-0.7332798704881495 pbc="F F F"
Li       0.00000000       0.00000000       0.00000000       0.00000000       0.00000000       0.18238014
Li       0.00000000       0.00000000       4.70666667       0.00000000       0.00000000      -0.18238014
2
Properties=species:S:1:pos:R:3:forces:R:3 energy=-0.7229694119667381 pbc="F F F"
Li       0.00000000       0.00000000       0.00000000       0.00000000       0.00000000       0.16863939
Li       0.00000000       0.00000000       4.76545455       0.00000000       0.00000000      -0.16863939
2
Properties=species:S:1:pos:R:3:forces:R:3 energy=-0.7134210784466654 pbc="F F F"
Li       0.00000000       0.00000000       0.00000000       0.00000000       0.00000000       0.15647089
Li       0.00000000       0.00000000       4.82424242       0.00000000       0.00000000      -0.15647089
2
Properties=species:S:1:pos:R:3:forces:R:3 energy=-0.7045397656180471 pbc="F F F"
Li       0.00000000       0.00000000       0.00000000       0.00000000       0.00000000       0.14597137
Li       0.00000000       0.00000000       4.88303030       0.00000000       0.00000000      -0.14597137
2
Properties=species:S:1:pos:R:3:forces:R:3 energy=-0.6962262504345657 pbc="F F F"
Li       0.00000000       0.00000000       0.00000000       0.00000000       0.00000000       0.13711485
Li       0.00000000       0.00000000       4.94181818       0.00000000       0.00000000      -0.13711485
2
Properties=species:S:1:pos:R:3:forces:R:3 energy=-0.6883885842721695 pbc="F F F"
Li       0.00000000       0.00000000       0.00000000       0.00000000       0.00000000       0.12975043
Li       0.00000000       0.00000000       5.00060606       0.00000000       0.00000000      -0.12975043
2
Properties=species:S:1:pos:R:3:forces:R:3 energy=-0.6809464602432873 pbc="F F F"
Li       0.00000000       0.00000000       0.00000000       0.00000000       0.00000000       0.12361050
Li       0.00000000       0.00000000       5.05939394       0.00000000       0.00000000      -0.12361050
2
Properties=species:S:1:pos:R:3:forces:R:3 energy=-0.6738381615976887 pbc="F F F"
Li       0.00000000       0.00000000       0.00000000       0.00000000       0.00000000       0.11832546
Li       0.00000000       0.00000000       5.11818182       0.00000000       0.00000000      -0.11832546
2
Properties=species:S:1:pos:R:3:forces:R:3 energy=-0.6670263405412405 pbc="F F F"
Li       0.00000000       0.00000000       0.00000000       0.00000000       0.00000000       0.11345847
Li       0.00000000       0.00000000       5.17696970       0.00000000       0.00000000      -0.11345847
2
Properties=species:S:1:pos:R:3:forces:R:3 energy=-0.6604994536671305 pbc="F F F"
Li       0.00000000       0.00000000       0.00000000       0.00000000       0.00000000       0.10855480
Li       0.00000000       0.00000000       5.23575758       0.00000000       0.00000000      -0.10855480
2
Properties=species:S:1:pos:R:3:forces:R:3 energy=-0.6542721803563334 pbc="F F F"
Li       0.00000000       0.00000000       0.00000000       0.00000000       0.00000000       0.10320076
Li       0.00000000       0.00000000       5.29454545       0.00000000       0.00000000      -0.10320076
2
Properties=species:S:1:pos:R:3:forces:R:3 energy=-0.6483802020795302 pbc="F F F"
Li       0.00000000       0.00000000       0.00000000       0.00000000       0.00000000       0.09709280
Li       0.00000000       0.00000000       5.35333333       0.00000000       0.00000000      -0.09709280
2
Properties=species:S:1:pos:R:3:forces:R:3 energy=-0.6428738399552509 pbc="F F F"
Li       0.00000000       0.00000000       0.00000000       0.00000000       0.00000000       0.09007460
Li       0.00000000       0.00000000       5.41212121       0.00000000       0.00000000      -0.09007460
2
Properties=species:S:1:pos:R:3:forces:R:3 energy=-0.6378073161624078 pbc="F F F"
Li       0.00000000       0.00000000       0.00000000       0.00000000       0.00000000       0.08215611
Li       0.00000000       0.00000000       5.47090909       0.00000000       0.00000000      -0.08215611
2
Properties=species:S:1:pos:R:3:forces:R:3 energy=-0.6332285932242592 pbc="F F F"
Li       0.00000000       0.00000000       0.00000000       0.00000000       0.00000000       0.07350835
Li       0.00000000       0.00000000       5.52969697       0.00000000       0.00000000      -0.07350835
2
Properties=species:S:1:pos:R:3:forces:R:3 energy=-0.6291735048267987 pbc="F F F"
Li       0.00000000       0.00000000       0.00000000       0.00000000       0.00000000       0.06440591
Li       0.00000000       0.00000000       5.58848485       0.00000000       0.00000000      -0.06440591
2
Properties=species:S:1:pos:R:3:forces:R:3 energy=-0.6256578618311498 pbc="F F F"
Li       0.00000000       0.00000000       0.00000000       0.00000000       0.00000000       0.05521346
Li       0.00000000       0.00000000       5.64727273       0.00000000       0.00000000      -0.05521346
2
Properties=species:S:1:pos:R:3:forces:R:3 energy=-0.6226760396010718 pbc="F F F"
Li       0.00000000       0.00000000       0.00000000       0.00000000       0.00000000       0.04632956
Li       0.00000000       0.00000000       5.70606061       0.00000000       0.00000000      -0.04632956
2
Properties=species:S:1:pos:R:3:forces:R:3 energy=-0.620195850003639 pbc="F F F"
Li       0.00000000       0.00000000       0.00000000       0.00000000       0.00000000       0.03812926
Li       0.00000000       0.00000000       5.76484848       0.00000000       0.00000000      -0.03812926
2
Properties=species:S:1:pos:R:3:forces:R:3 energy=-0.6181713163941318 pbc="F F F"
Li       0.00000000       0.00000000       0.00000000       0.00000000       0.00000000       0.03098476
Li       0.00000000       0.00000000       5.82363636       0.00000000       0.00000000      -0.03098476
2
Properties=species:S:1:pos:R:3:forces:R:3 energy=-0.616527688507556 pbc="F F F"
Li       0.00000000       0.00000000       0.00000000       0.00000000       0.00000000       0.02521491
Li       0.00000000       0.00000000       5.88242424       0.00000000       0.00000000      -0.02521491
2
Properties=species:S:1:pos:R:3:forces:R:3 energy=-0.6151744326874222 pbc="F F F"
Li       0.00000000       0.00000000       0.00000000       0.00000000       0.00000000       0.02109542
Li       0.00000000       0.00000000       5.94121212       0.00000000       0.00000000      -0.02109542
2
Properties=species:S:1:pos:R:3:forces:R:3 energy=-0.6140097834295283 pbc="F F F"
Li       0.00000000       0.00000000       0.00000000       0.00000000       0.00000000       0.01887134
Li       0.00000000       0.00000000       6.00000000       0.00000000       0.00000000      -0.01887134
