2
Properties=species:S:1:pos:R:3:forces:R:3 energy=14702.198584908194 pbc="F F F"
Lu       0.00000000       0.00000000       0.00000000       0.00000000       0.00000000 -256918.26562500
Lu       0.00000000       0.00000000       0.18000000       0.00000000       0.00000000  256918.26562500
2
Properties=species:S:1:pos:R:3:forces:R:3 energy=5711.709327095693 pbc="F F F"
Lu       0.00000000       0.00000000       0.00000000       0.00000000       0.00000000  -85237.87500000
Lu       0.00000000       0.00000000       0.23878788       0.00000000       0.00000000   85237.87500000
2
Properties=species:S:1:pos:R:3:forces:R:3 energy=2497.0748056113184 pbc="F F F"
Lu       0.00000000       0.00000000       0.00000000       0.00000000       0.00000000  -33276.54687500
Lu       0.00000000       0.00000000       0.29757576       0.00000000       0.00000000   33276.54687500
2
Properties=species:S:1:pos:R:3:forces:R:3 energy=1182.333838820779 pbc="F F F"
Lu       0.00000000       0.00000000       0.00000000       0.00000000       0.00000000  -14373.44921875
Lu       0.00000000       0.00000000       0.35636364       0.00000000       0.00000000   14373.44921875
2
Properties=species:S:1:pos:R:3:forces:R:3 energy=595.3921273949977 pbc="F F F"
Lu       0.00000000       0.00000000       0.00000000       0.00000000       0.00000000   -6675.12158203
Lu       0.00000000       0.00000000       0.41515152       0.00000000       0.00000000    6675.12158203
2
Properties=species:S:1:pos:R:3:forces:R:3 energy=315.4682382475128 pbc="F F F"
Lu       0.00000000       0.00000000       0.00000000       0.00000000       0.00000000   -3287.47436523
Lu       0.00000000       0.00000000       0.47393939       0.00000000       0.00000000    3287.47436523
2
Properties=species:S:1:pos:R:3:forces:R:3 energy=174.3854898470981 pbc="F F F"
Lu       0.00000000       0.00000000       0.00000000       0.00000000       0.00000000   -1703.54980469
Lu       0.00000000       0.00000000       0.53272727       0.00000000       0.00000000    1703.54980469
2
Properties=species:S:1:pos:R:3:forces:R:3 energy=99.7635797835615 pbc="F F F"
Lu       0.00000000       0.00000000       0.00000000       0.00000000       0.00000000    -923.12731934
Lu       0.00000000       0.00000000       0.59151515       0.00000000       0.00000000     923.12731934
2
Properties=species:S:1:pos:R:3:forces:R:3 energy=58.59745739772321 pbc="F F F"
Lu       0.00000000       0.00000000       0.00000000       0.00000000       0.00000000    -519.84844971
Lu       0.00000000       0.00000000       0.65030303       0.00000000       0.00000000     519.84844971
2
Properties=species:S:1:pos:R:3:forces:R:3 energy=35.06678730139967 pbc="F F F"
Lu       0.00000000       0.00000000       0.00000000       0.00000000       0.00000000    -302.12619019
Lu       0.00000000       0.00000000       0.70909091       0.00000000       0.00000000     302.12619019
2
Properties=species:S:1:pos:R:3:forces:R:3 energy=21.23341339200377 pbc="F F F"
Lu       0.00000000       0.00000000       0.00000000       0.00000000       0.00000000    -179.78623962
Lu       0.00000000       0.00000000       0.76787879       0.00000000       0.00000000     179.78623962
2
Properties=species:S:1:pos:R:3:forces:R:3 energy=12.940641276310988 pbc="F F F"
Lu       0.00000000       0.00000000       0.00000000       0.00000000       0.00000000    -108.52129364
Lu       0.00000000       0.00000000       0.82666667       0.00000000       0.00000000     108.52129364
2
Properties=species:S:1:pos:R:3:forces:R:3 energy=7.923784376184318 pbc="F F F"
Lu       0.00000000       0.00000000       0.00000000       0.00000000       0.00000000     -65.66590881
Lu       0.00000000       0.00000000       0.88545455       0.00000000       0.00000000      65.66590881
2
Properties=species:S:1:pos:R:3:forces:R:3 energy=4.902017108372782 pbc="F F F"
Lu       0.00000000       0.00000000       0.00000000       0.00000000       0.00000000     -39.20674515
Lu       0.00000000       0.00000000       0.94424242       0.00000000       0.00000000      39.20674515
2
Properties=species:S:1:pos:R:3:forces:R:3 energy=3.122328271564903 pbc="F F F"
Lu       0.00000000       0.00000000       0.00000000       0.00000000       0.00000000     -22.62494278
Lu       0.00000000       0.00000000       1.00303030       0.00000000       0.00000000      22.62494278
2
Properties=species:S:1:pos:R:3:forces:R:3 energy=2.1186896902735706 pbc="F F F"
Lu       0.00000000       0.00000000       0.00000000       0.00000000       0.00000000     -12.38284206
Lu       0.00000000       0.00000000       1.06181818       0.00000000       0.00000000      12.38284206
2
Properties=species:S:1:pos:R:3:forces:R:3 energy=1.5796652452195346 pbc="F F F"
Lu       0.00000000       0.00000000       0.00000000       0.00000000       0.00000000      -6.59343863
Lu       0.00000000       0.00000000       1.12060606       0.00000000       0.00000000       6.59343863
2
Properties=species:S:1:pos:R:3:forces:R:3 energy=1.2773215612511826 pbc="F F F"
Lu       0.00000000       0.00000000       0.00000000       0.00000000       0.00000000      -4.18604755
Lu       0.00000000       0.00000000       1.17939394       0.00000000       0.00000000       4.18604755
2
Properties=species:S:1:pos:R:3:forces:R:3 energy=1.037611721140631 pbc="F F F"
Lu       0.00000000       0.00000000       0.00000000       0.00000000       0.00000000      -4.31772375
Lu       0.00000000       0.00000000       1.23818182       0.00000000       0.00000000       4.31772375
2
Properties=species:S:1:pos:R:3:forces:R:3 energy=0.739709318142784 pbc="F F F"
Lu       0.00000000       0.00000000       0.00000000       0.00000000       0.00000000      -5.96170998
Lu       0.00000000       0.00000000       1.29696970       0.00000000       0.00000000       5.96170998
2
Properties=species:S:1:pos:R:3:forces:R:3 energy=0.3357720449006685 pbc="F F F"
Lu       0.00000000       0.00000000       0.00000000       0.00000000       0.00000000      -7.63482475
Lu       0.00000000       0.00000000       1.35575758       0.00000000       0.00000000       7.63482475
2
Properties=species:S:1:pos:R:3:forces:R:3 energy=-0.12206010627110771 pbc="F F F"
Lu       0.00000000       0.00000000       0.00000000       0.00000000       0.00000000      -7.49309635
Lu       0.00000000       0.00000000       1.41454545       0.00000000       0.00000000       7.49309635
2
Properties=species:S:1:pos:R:3:forces:R:3 energy=-0.4842004629889674 pbc="F F F"
Lu       0.00000000       0.00000000       0.00000000       0.00000000       0.00000000      -4.31342125
Lu       0.00000000       0.00000000       1.47333333       0.00000000       0.00000000       4.31342125
2
Properties=species:S:1:pos:R:3:forces:R:3 energy=-0.5851308467789653 pbc="F F F"
Lu       0.00000000       0.00000000       0.00000000       0.00000000       0.00000000       1.03924191
Lu       0.00000000       0.00000000       1.53212121       0.00000000       0.00000000      -1.03924191
2
Properties=species:S:1:pos:R:3:forces:R:3 energy=-0.3743096025979588 pbc="F F F"
Lu       0.00000000       0.00000000       0.00000000       0.00000000       0.00000000       5.78773117
Lu       0.00000000       0.00000000       1.59090909       0.00000000       0.00000000      -5.78773117
2
Properties=species:S:1:pos:R:3:forces:R:3 energy=0.03831518660967652 pbc="F F F"
Lu       0.00000000       0.00000000       0.00000000       0.00000000       0.00000000       7.71125364
Lu       0.00000000       0.00000000       1.64969697       0.00000000       0.00000000      -7.71125364
2
Properties=species:S:1:pos:R:3:forces:R:3 energy=0.47568976540699165 pbc="F F F"
Lu       0.00000000       0.00000000       0.00000000       0.00000000       0.00000000       6.78997755
Lu       0.00000000       0.00000000       1.70848485       0.00000000       0.00000000      -6.78997755
2
Properties=species:S:1:pos:R:3:forces:R:3 energy=0.8075277640467946 pbc="F F F"
Lu       0.00000000       0.00000000       0.00000000       0.00000000       0.00000000       4.37975311
Lu       0.00000000       0.00000000       1.76727273       0.00000000       0.00000000      -4.37975311
2
Properties=species:S:1:pos:R:3:forces:R:3 energy=0.9892570229871753 pbc="F F F"
Lu       0.00000000       0.00000000       0.00000000       0.00000000       0.00000000       1.87834787
Lu       0.00000000       0.00000000       1.82606061       0.00000000       0.00000000      -1.87834787
2
Properties=species:S:1:pos:R:3:forces:R:3 energy=1.0429301280588357 pbc="F F F"
Lu       0.00000000       0.00000000       0.00000000       0.00000000       0.00000000       0.09004492
Lu       0.00000000       0.00000000       1.88484848       0.00000000       0.00000000      -0.09004492
2
Properties=species:S:1:pos:R:3:forces:R:3 energy=1.0144243632005827 pbc="F F F"
Lu       0.00000000       0.00000000       0.00000000       0.00000000       0.00000000      -0.96671540
Lu       0.00000000       0.00000000       1.94363636       0.00000000       0.00000000       0.96671540
2
Properties=species:S:1:pos:R:3:forces:R:3 energy=0.9366726347994381 pbc="F F F"
Lu       0.00000000       0.00000000       0.00000000       0.00000000       0.00000000      -1.63802767
Lu       0.00000000       0.00000000       2.00242424       0.00000000       0.00000000       1.63802767
2
Properties=species:S:1:pos:R:3:forces:R:3 energy=0.8251731330177533 pbc="F F F"
Lu       0.00000000       0.00000000       0.00000000       0.00000000       0.00000000      -2.13463354
Lu       0.00000000       0.00000000       2.06121212       0.00000000       0.00000000       2.13463354
2
Properties=species:S:1:pos:R:3:forces:R:3 energy=0.6875676294821228 pbc="F F F"
Lu       0.00000000       0.00000000       0.00000000       0.00000000       0.00000000      -2.53437948
Lu       0.00000000       0.00000000       2.12000000       0.00000000       0.00000000       2.53437948
2
Properties=species:S:1:pos:R:3:forces:R:3 energy=0.5283819285490831 pbc="F F F"
Lu       0.00000000       0.00000000       0.00000000       0.00000000       0.00000000      -2.87262559
Lu       0.00000000       0.00000000       2.17878788       0.00000000       0.00000000       2.87262559
2
Properties=species:S:1:pos:R:3:forces:R:3 energy=0.35075189227287434 pbc="F F F"
Lu       0.00000000       0.00000000       0.00000000       0.00000000       0.00000000      -3.16260338
Lu       0.00000000       0.00000000       2.23757576       0.00000000       0.00000000       3.16260338
2
Properties=species:S:1:pos:R:3:forces:R:3 energy=0.15752723089561277 pbc="F F F"
Lu       0.00000000       0.00000000       0.00000000       0.00000000       0.00000000      -3.40170741
Lu       0.00000000       0.00000000       2.29636364       0.00000000       0.00000000       3.40170741
2
Properties=species:S:1:pos:R:3:forces:R:3 energy=-0.04797951152210657 pbc="F F F"
Lu       0.00000000       0.00000000       0.00000000       0.00000000       0.00000000      -3.57813334
Lu       0.00000000       0.00000000       2.35515152       0.00000000       0.00000000       3.57813334
2
Properties=species:S:1:pos:R:3:forces:R:3 energy=-0.26165192466638176 pbc="F F F"
Lu       0.00000000       0.00000000       0.00000000       0.00000000       0.00000000      -3.67705822
Lu       0.00000000       0.00000000       2.41393939       0.00000000       0.00000000       3.67705822
2
Properties=species:S:1:pos:R:3:forces:R:3 energy=-0.4785622713019648 pbc="F F F"
Lu       0.00000000       0.00000000       0.00000000       0.00000000       0.00000000      -3.68696713
Lu       0.00000000       0.00000000       2.47272727       0.00000000       0.00000000       3.68696713
2
Properties=species:S:1:pos:R:3:forces:R:3 energy=-0.6933554388031258 pbc="F F F"
Lu       0.00000000       0.00000000       0.00000000       0.00000000       0.00000000      -3.60564947
Lu       0.00000000       0.00000000       2.53151515       0.00000000       0.00000000       3.60564947
2
Properties=species:S:1:pos:R:3:forces:R:3 energy=-0.9008988250187255 pbc="F F F"
Lu       0.00000000       0.00000000       0.00000000       0.00000000       0.00000000      -3.44306159
Lu       0.00000000       0.00000000       2.59030303       0.00000000       0.00000000       3.44306159
2
Properties=species:S:1:pos:R:3:forces:R:3 energy=-1.096954309782019 pbc="F F F"
Lu       0.00000000       0.00000000       0.00000000       0.00000000       0.00000000      -3.21828485
Lu       0.00000000       0.00000000       2.64909091       0.00000000       0.00000000       3.21828485
2
Properties=species:S:1:pos:R:3:forces:R:3 energy=-1.278481913817314 pbc="F F F"
Lu       0.00000000       0.00000000       0.00000000       0.00000000       0.00000000      -2.95191193
Lu       0.00000000       0.00000000       2.70787879       0.00000000       0.00000000       2.95191193
2
Properties=species:S:1:pos:R:3:forces:R:3 energy=-1.4435145186961453 pbc="F F F"
Lu       0.00000000       0.00000000       0.00000000       0.00000000       0.00000000      -2.65905428
Lu       0.00000000       0.00000000       2.76666667       0.00000000       0.00000000       2.65905428
2
Properties=species:S:1:pos:R:3:forces:R:3 energy=-1.590752436043511 pbc="F F F"
Lu       0.00000000       0.00000000       0.00000000       0.00000000       0.00000000      -2.34722877
Lu       0.00000000       0.00000000       2.82545455       0.00000000       0.00000000       2.34722877
2
Properties=species:S:1:pos:R:3:forces:R:3 energy=-1.719171869794035 pbc="F F F"
Lu       0.00000000       0.00000000       0.00000000       0.00000000       0.00000000      -2.01899886
Lu       0.00000000       0.00000000       2.88424242       0.00000000       0.00000000       2.01899886
2
Properties=species:S:1:pos:R:3:forces:R:3 energy=-1.827850753755839 pbc="F F F"
Lu       0.00000000       0.00000000       0.00000000       0.00000000       0.00000000      -1.67613482
Lu       0.00000000       0.00000000       2.94303030       0.00000000       0.00000000       1.67613482
2
Properties=species:S:1:pos:R:3:forces:R:3 energy=-1.9160274255876735 pbc="F F F"
Lu       0.00000000       0.00000000       0.00000000       0.00000000       0.00000000      -1.32230175
Lu       0.00000000       0.00000000       3.00181818       0.00000000       0.00000000       1.32230175
2
Properties=species:S:1:pos:R:3:forces:R:3 energy=-1.9832234820592416 pbc="F F F"
Lu       0.00000000       0.00000000       0.00000000       0.00000000       0.00000000      -0.96353626
Lu       0.00000000       0.00000000       3.06060606       0.00000000       0.00000000       0.96353626
2
Properties=species:S:1:pos:R:3:forces:R:3 energy=-2.029366201823877 pbc="F F F"
Lu       0.00000000       0.00000000       0.00000000       0.00000000       0.00000000      -0.60739136
Lu       0.00000000       0.00000000       3.11939394       0.00000000       0.00000000       0.60739136
2
Properties=species:S:1:pos:R:3:forces:R:3 energy=-2.054850166781741 pbc="F F F"
Lu       0.00000000       0.00000000       0.00000000       0.00000000       0.00000000      -0.26210862
Lu       0.00000000       0.00000000       3.17818182       0.00000000       0.00000000       0.26210862
2
Properties=species:S:1:pos:R:3:forces:R:3 energy=-2.0605693288828264 pbc="F F F"
Lu       0.00000000       0.00000000       0.00000000       0.00000000       0.00000000       0.06351437
Lu       0.00000000       0.00000000       3.23696970       0.00000000       0.00000000      -0.06351437
2
Properties=species:S:1:pos:R:3:forces:R:3 energy=-2.0479534811618487 pbc="F F F"
Lu       0.00000000       0.00000000       0.00000000       0.00000000       0.00000000       0.35997945
Lu       0.00000000       0.00000000       3.29575758       0.00000000       0.00000000      -0.35997945
2
Properties=species:S:1:pos:R:3:forces:R:3 energy=-2.019012171778379 pbc="F F F"
Lu       0.00000000       0.00000000       0.00000000       0.00000000       0.00000000       0.61727262
Lu       0.00000000       0.00000000       3.35454545       0.00000000       0.00000000      -0.61727262
2
Properties=species:S:1:pos:R:3:forces:R:3 energy=-1.9763314225054667 pbc="F F F"
Lu       0.00000000       0.00000000       0.00000000       0.00000000       0.00000000       0.82595009
Lu       0.00000000       0.00000000       3.41333333       0.00000000       0.00000000      -0.82595009
2
Properties=species:S:1:pos:R:3:forces:R:3 energy=-1.9229945732654938 pbc="F F F"
Lu       0.00000000       0.00000000       0.00000000       0.00000000       0.00000000       0.97892362
Lu       0.00000000       0.00000000       3.47212121       0.00000000       0.00000000      -0.97892362
2
Properties=species:S:1:pos:R:3:forces:R:3 energy=-1.862384747665582 pbc="F F F"
Lu       0.00000000       0.00000000       0.00000000       0.00000000       0.00000000       1.07335508
Lu       0.00000000       0.00000000       3.53090909       0.00000000       0.00000000      -1.07335508
2
Properties=species:S:1:pos:R:3:forces:R:3 energy=-1.7978922978979568 pbc="F F F"
Lu       0.00000000       0.00000000       0.00000000       0.00000000       0.00000000       1.11189151
Lu       0.00000000       0.00000000       3.58969697       0.00000000       0.00000000      -1.11189151
2
Properties=species:S:1:pos:R:3:forces:R:3 energy=-1.7325910754910865 pbc="F F F"
Lu       0.00000000       0.00000000       0.00000000       0.00000000       0.00000000       1.10268223
Lu       0.00000000       0.00000000       3.64848485       0.00000000       0.00000000      -1.10268223
2
Properties=species:S:1:pos:R:3:forces:R:3 energy=-1.6689402635339385 pbc="F F F"
Lu       0.00000000       0.00000000       0.00000000       0.00000000       0.00000000       1.05804729
Lu       0.00000000       0.00000000       3.70727273       0.00000000       0.00000000      -1.05804729
2
Properties=species:S:1:pos:R:3:forces:R:3 energy=-1.6086050859044951 pbc="F F F"
Lu       0.00000000       0.00000000       0.00000000       0.00000000       0.00000000       0.99220484
Lu       0.00000000       0.00000000       3.76606061       0.00000000       0.00000000      -0.99220484
2
Properties=species:S:1:pos:R:3:forces:R:3 energy=-1.5524282298864343 pbc="F F F"
Lu       0.00000000       0.00000000       0.00000000       0.00000000       0.00000000       0.91873902
Lu       0.00000000       0.00000000       3.82484848       0.00000000       0.00000000      -0.91873902
2
Properties=species:S:1:pos:R:3:forces:R:3 energy=-1.5005180915536664 pbc="F F F"
Lu       0.00000000       0.00000000       0.00000000       0.00000000       0.00000000       0.84851581
Lu       0.00000000       0.00000000       3.88363636       0.00000000       0.00000000      -0.84851581
2
Properties=species:S:1:pos:R:3:forces:R:3 energy=-1.452458804699544 pbc="F F F"
Lu       0.00000000       0.00000000       0.00000000       0.00000000       0.00000000       0.78858221
Lu       0.00000000       0.00000000       3.94242424       0.00000000       0.00000000      -0.78858221
2
Properties=species:S:1:pos:R:3:forces:R:3 energy=-1.4075354398561086 pbc="F F F"
Lu       0.00000000       0.00000000       0.00000000       0.00000000       0.00000000       0.74206620
Lu       0.00000000       0.00000000       4.00121212       0.00000000       0.00000000      -0.74206620
2
Properties=species:S:1:pos:R:3:forces:R:3 energy=-1.364947213860253 pbc="F F F"
Lu       0.00000000       0.00000000       0.00000000       0.00000000       0.00000000       0.70889109
Lu       0.00000000       0.00000000       4.06000000       0.00000000       0.00000000      -0.70889109
2
Properties=species:S:1:pos:R:3:forces:R:3 energy=-1.3239676132721643 pbc="F F F"
Lu       0.00000000       0.00000000       0.00000000       0.00000000       0.00000000       0.68687165
Lu       0.00000000       0.00000000       4.11878788       0.00000000       0.00000000      -0.68687165
2
Properties=species:S:1:pos:R:3:forces:R:3 energy=-1.2840321450837213 pbc="F F F"
Lu       0.00000000       0.00000000       0.00000000       0.00000000       0.00000000       0.67278790
Lu       0.00000000       0.00000000       4.17757576       0.00000000       0.00000000      -0.67278790
2
Properties=species:S:1:pos:R:3:forces:R:3 energy=-1.2447749414739844 pbc="F F F"
Lu       0.00000000       0.00000000       0.00000000       0.00000000       0.00000000       0.66324109
Lu       0.00000000       0.00000000       4.23636364       0.00000000       0.00000000      -0.66324109
2
Properties=species:S:1:pos:R:3:forces:R:3 energy=-1.206021186267509 pbc="F F F"
Lu       0.00000000       0.00000000       0.00000000       0.00000000       0.00000000       0.65519232
Lu       0.00000000       0.00000000       4.29515152       0.00000000       0.00000000      -0.65519232
2
Properties=species:S:1:pos:R:3:forces:R:3 energy=-1.1677580923920918 pbc="F F F"
Lu       0.00000000       0.00000000       0.00000000       0.00000000       0.00000000       0.64628142
Lu       0.00000000       0.00000000       4.35393939       0.00000000       0.00000000      -0.64628142
2
Properties=species:S:1:pos:R:3:forces:R:3 energy=-1.1300837599256008 pbc="F F F"
Lu       0.00000000       0.00000000       0.00000000       0.00000000       0.00000000       0.63491672
Lu       0.00000000       0.00000000       4.41272727       0.00000000       0.00000000      -0.63491672
2
Properties=species:S:1:pos:R:3:forces:R:3 energy=-1.093171540021996 pbc="F F F"
Lu       0.00000000       0.00000000       0.00000000       0.00000000       0.00000000       0.62027061
Lu       0.00000000       0.00000000       4.47151515       0.00000000       0.00000000      -0.62027061
2
Properties=species:S:1:pos:R:3:forces:R:3 energy=-1.0572230917938232 pbc="F F F"
Lu       0.00000000       0.00000000       0.00000000       0.00000000       0.00000000       0.60213000
Lu       0.00000000       0.00000000       4.53030303       0.00000000       0.00000000      -0.60213000
2
Properties=species:S:1:pos:R:3:forces:R:3 energy=-1.0224407194213951 pbc="F F F"
Lu       0.00000000       0.00000000       0.00000000       0.00000000       0.00000000       0.58068359
Lu       0.00000000       0.00000000       4.58909091       0.00000000       0.00000000      -0.58068359
2
Properties=species:S:1:pos:R:3:forces:R:3 energy=-0.9890076240084361 pbc="F F F"
Lu       0.00000000       0.00000000       0.00000000       0.00000000       0.00000000       0.55629081
Lu       0.00000000       0.00000000       4.64787879       0.00000000       0.00000000      -0.55629081
2
Properties=species:S:1:pos:R:3:forces:R:3 energy=-0.9570844756070621 pbc="F F F"
Lu       0.00000000       0.00000000       0.00000000       0.00000000       0.00000000       0.52931833
Lu       0.00000000       0.00000000       4.70666667       0.00000000       0.00000000      -0.52931833
2
Properties=species:S:1:pos:R:3:forces:R:3 energy=-0.9268160345010422 pbc="F F F"
Lu       0.00000000       0.00000000       0.00000000       0.00000000       0.00000000       0.50010061
Lu       0.00000000       0.00000000       4.76545455       0.00000000       0.00000000      -0.50010061
2
Properties=species:S:1:pos:R:3:forces:R:3 energy=-0.8983218312904345 pbc="F F F"
Lu       0.00000000       0.00000000       0.00000000       0.00000000       0.00000000       0.46897385
Lu       0.00000000       0.00000000       4.82424242       0.00000000       0.00000000      -0.46897385
2
Properties=species:S:1:pos:R:3:forces:R:3 energy=-0.8717062083983323 pbc="F F F"
Lu       0.00000000       0.00000000       0.00000000       0.00000000       0.00000000       0.43638536
Lu       0.00000000       0.00000000       4.88303030       0.00000000       0.00000000      -0.43638536
2
Properties=species:S:1:pos:R:3:forces:R:3 energy=-0.8470309476996712 pbc="F F F"
Lu       0.00000000       0.00000000       0.00000000       0.00000000       0.00000000       0.40294564
Lu       0.00000000       0.00000000       4.94181818       0.00000000       0.00000000      -0.40294564
2
Properties=species:S:1:pos:R:3:forces:R:3 energy=-0.8243293562243286 pbc="F F F"
Lu       0.00000000       0.00000000       0.00000000       0.00000000       0.00000000       0.36940366
Lu       0.00000000       0.00000000       5.00060606       0.00000000       0.00000000      -0.36940366
2
Properties=species:S:1:pos:R:3:forces:R:3 energy=-0.8035839296704682 pbc="F F F"
Lu       0.00000000       0.00000000       0.00000000       0.00000000       0.00000000       0.33653048
Lu       0.00000000       0.00000000       5.05939394       0.00000000       0.00000000      -0.33653048
2
Properties=species:S:1:pos:R:3:forces:R:3 energy=-0.7847353541217952 pbc="F F F"
Lu       0.00000000       0.00000000       0.00000000       0.00000000       0.00000000       0.30496797
Lu       0.00000000       0.00000000       5.11818182       0.00000000       0.00000000      -0.30496797
2
Properties=species:S:1:pos:R:3:forces:R:3 energy=-0.7676945461858002 pbc="F F F"
Lu       0.00000000       0.00000000       0.00000000       0.00000000       0.00000000       0.27510473
Lu       0.00000000       0.00000000       5.17696970       0.00000000       0.00000000      -0.27510473
2
Properties=species:S:1:pos:R:3:forces:R:3 energy=-0.7523558808891259 pbc="F F F"
Lu       0.00000000       0.00000000       0.00000000       0.00000000       0.00000000       0.24704562
Lu       0.00000000       0.00000000       5.23575758       0.00000000       0.00000000      -0.24704562
2
Properties=species:S:1:pos:R:3:forces:R:3 energy=-0.7386162677477408 pbc="F F F"
Lu       0.00000000       0.00000000       0.00000000       0.00000000       0.00000000       0.22065657
Lu       0.00000000       0.00000000       5.29454545       0.00000000       0.00000000      -0.22065657
2
Properties=species:S:1:pos:R:3:forces:R:3 energy=-0.7263835417665883 pbc="F F F"
Lu       0.00000000       0.00000000       0.00000000       0.00000000       0.00000000       0.19569328
Lu       0.00000000       0.00000000       5.35333333       0.00000000       0.00000000      -0.19569328
2
Properties=species:S:1:pos:R:3:forces:R:3 energy=-0.7155834892840733 pbc="F F F"
Lu       0.00000000       0.00000000       0.00000000       0.00000000       0.00000000       0.17189553
Lu       0.00000000       0.00000000       5.41212121       0.00000000       0.00000000      -0.17189553
2
Properties=species:S:1:pos:R:3:forces:R:3 energy=-0.7061529148263364 pbc="F F F"
Lu       0.00000000       0.00000000       0.00000000       0.00000000       0.00000000       0.14911191
Lu       0.00000000       0.00000000       5.47090909       0.00000000       0.00000000      -0.14911191
2
Properties=species:S:1:pos:R:3:forces:R:3 energy=-0.6980320047931009 pbc="F F F"
Lu       0.00000000       0.00000000       0.00000000       0.00000000       0.00000000       0.12732546
Lu       0.00000000       0.00000000       5.52969697       0.00000000       0.00000000      -0.12732546
2
Properties=species:S:1:pos:R:3:forces:R:3 energy=-0.6911598781161186 pbc="F F F"
Lu       0.00000000       0.00000000       0.00000000       0.00000000       0.00000000       0.10668115
Lu       0.00000000       0.00000000       5.58848485       0.00000000       0.00000000      -0.10668115
2
Properties=species:S:1:pos:R:3:forces:R:3 energy=-0.6854611821337155 pbc="F F F"
Lu       0.00000000       0.00000000       0.00000000       0.00000000       0.00000000       0.08745421
Lu       0.00000000       0.00000000       5.64727273       0.00000000       0.00000000      -0.08745421
2
Properties=species:S:1:pos:R:3:forces:R:3 energy=-0.6808438607084056 pbc="F F F"
Lu       0.00000000       0.00000000       0.00000000       0.00000000       0.00000000       0.06999847
Lu       0.00000000       0.00000000       5.70606061       0.00000000       0.00000000      -0.06999847
2
Properties=species:S:1:pos:R:3:forces:R:3 energy=-0.6771858281290388 pbc="F F F"
Lu       0.00000000       0.00000000       0.00000000       0.00000000       0.00000000       0.05471082
Lu       0.00000000       0.00000000       5.76484848       0.00000000       0.00000000      -0.05471082
2
Properties=species:S:1:pos:R:3:forces:R:3 energy=-0.6743583004534609 pbc="F F F"
Lu       0.00000000       0.00000000       0.00000000       0.00000000       0.00000000       0.04201115
Lu       0.00000000       0.00000000       5.82363636       0.00000000       0.00000000      -0.04201115
2
Properties=species:S:1:pos:R:3:forces:R:3 energy=-0.67219122939826 pbc="F F F"
Lu       0.00000000       0.00000000       0.00000000       0.00000000       0.00000000       0.03228864
Lu       0.00000000       0.00000000       5.88242424       0.00000000       0.00000000      -0.03228864
2
Properties=species:S:1:pos:R:3:forces:R:3 energy=-0.6704966469366922 pbc="F F F"
Lu       0.00000000       0.00000000       0.00000000       0.00000000       0.00000000       0.02589413
Lu       0.00000000       0.00000000       5.94121212       0.00000000       0.00000000      -0.02589413
2
Properties=species:S:1:pos:R:3:forces:R:3 energy=-0.6690739320982 pbc="F F F"
Lu       0.00000000       0.00000000       0.00000000       0.00000000       0.00000000       0.02315903
Lu       0.00000000       0.00000000       6.00000000       0.00000000       0.00000000      -0.02315903
