2
Properties=species:S:1:pos:R:3:forces:R:3 energy=76790.2942880332 pbc="F F F"
Lu       0.00000000       0.00000000       0.00000000       0.00000000       0.00000000 -1929012.25000000
Lu       0.00000000       0.00000000       0.10000000       0.00000000       0.00000000 1929012.25000000
2
Properties=species:S:1:pos:R:3:forces:R:3 energy=21271.436866158194 pbc="F F F"
Lu       0.00000000       0.00000000       0.00000000       0.00000000       0.00000000 -399469.81250000
Lu       0.00000000       0.00000000       0.15959596       0.00000000       0.00000000  399469.81250000
2
Properties=species:S:1:pos:R:3:forces:R:3 energy=7703.355323189443 pbc="F F F"
Lu       0.00000000       0.00000000       0.00000000       0.00000000       0.00000000 -120375.55468750
Lu       0.00000000       0.00000000       0.21919192       0.00000000       0.00000000  120375.55468750
2
Properties=species:S:1:pos:R:3:forces:R:3 energy=3220.7852548300684 pbc="F F F"
Lu       0.00000000       0.00000000       0.00000000       0.00000000       0.00000000  -44363.10546875
Lu       0.00000000       0.00000000       0.27878788       0.00000000       0.00000000   44363.10546875
2
Properties=species:S:1:pos:R:3:forces:R:3 energy=1475.4845956567165 pbc="F F F"
Lu       0.00000000       0.00000000       0.00000000       0.00000000       0.00000000  -18421.51562500
Lu       0.00000000       0.00000000       0.33838384       0.00000000       0.00000000   18421.51562500
2
Properties=species:S:1:pos:R:3:forces:R:3 energy=723.382666945779 pbc="F F F"
Lu       0.00000000       0.00000000       0.00000000       0.00000000       0.00000000   -8297.09472656
Lu       0.00000000       0.00000000       0.39797980       0.00000000       0.00000000    8297.09472656
2
Properties=species:S:1:pos:R:3:forces:R:3 energy=374.74732149313024 pbc="F F F"
Lu       0.00000000       0.00000000       0.00000000       0.00000000       0.00000000   -3982.36279297
Lu       0.00000000       0.00000000       0.45757576       0.00000000       0.00000000    3982.36279297
2
Properties=species:S:1:pos:R:3:forces:R:3 energy=203.2536996859653 pbc="F F F"
Lu       0.00000000       0.00000000       0.00000000       0.00000000       0.00000000   -2017.92980957
Lu       0.00000000       0.00000000       0.51717172       0.00000000       0.00000000    2017.92980957
2
Properties=species:S:1:pos:R:3:forces:R:3 energy=114.44706670936677 pbc="F F F"
Lu       0.00000000       0.00000000       0.00000000       0.00000000       0.00000000   -1072.34143066
Lu       0.00000000       0.00000000       0.57676768       0.00000000       0.00000000    1072.34143066
2
Properties=species:S:1:pos:R:3:forces:R:3 energy=66.34670969805221 pbc="F F F"
Lu       0.00000000       0.00000000       0.00000000       0.00000000       0.00000000    -593.81567383
Lu       0.00000000       0.00000000       0.63636364       0.00000000       0.00000000     593.81567383
2
Properties=species:S:1:pos:R:3:forces:R:3 energy=39.279105702802894 pbc="F F F"
Lu       0.00000000       0.00000000       0.00000000       0.00000000       0.00000000    -340.26281738
Lu       0.00000000       0.00000000       0.69595960       0.00000000       0.00000000     340.26281738
2
Properties=species:S:1:pos:R:3:forces:R:3 energy=23.572042135582087 pbc="F F F"
Lu       0.00000000       0.00000000       0.00000000       0.00000000       0.00000000    -200.14794922
Lu       0.00000000       0.00000000       0.75555556       0.00000000       0.00000000     200.14794922
2
Properties=species:S:1:pos:R:3:forces:R:3 energy=14.253724886978762 pbc="F F F"
Lu       0.00000000       0.00000000       0.00000000       0.00000000       0.00000000    -119.72763062
Lu       0.00000000       0.00000000       0.81515152       0.00000000       0.00000000     119.72763062
2
Properties=species:S:1:pos:R:3:forces:R:3 energy=8.660230706114397 pbc="F F F"
Lu       0.00000000       0.00000000       0.00000000       0.00000000       0.00000000     -71.99094391
Lu       0.00000000       0.00000000       0.87474747       0.00000000       0.00000000      71.99094391
2
Properties=species:S:1:pos:R:3:forces:R:3 energy=5.307873654360821 pbc="F F F"
Lu       0.00000000       0.00000000       0.00000000       0.00000000       0.00000000     -42.83940506
Lu       0.00000000       0.00000000       0.93434343       0.00000000       0.00000000      42.83940506
2
Properties=species:S:1:pos:R:3:forces:R:3 energy=3.3373688729478648 pbc="F F F"
Lu       0.00000000       0.00000000       0.00000000       0.00000000       0.00000000     -24.70992851
Lu       0.00000000       0.00000000       0.99393939       0.00000000       0.00000000      24.70992851
2
Properties=species:S:1:pos:R:3:forces:R:3 energy=2.225926451085879 pbc="F F F"
Lu       0.00000000       0.00000000       0.00000000       0.00000000       0.00000000     -13.52488232
Lu       0.00000000       0.00000000       1.05353535       0.00000000       0.00000000      13.52488232
2
Properties=species:S:1:pos:R:3:forces:R:3 energy=1.6308967412025717 pbc="F F F"
Lu       0.00000000       0.00000000       0.00000000       0.00000000       0.00000000      -7.12382841
Lu       0.00000000       0.00000000       1.11313131       0.00000000       0.00000000       7.12382841
2
Properties=species:S:1:pos:R:3:forces:R:3 energy=1.3056422112041663 pbc="F F F"
Lu       0.00000000       0.00000000       0.00000000       0.00000000       0.00000000      -4.31534815
Lu       0.00000000       0.00000000       1.17272727       0.00000000       0.00000000       4.31534815
2
Properties=species:S:1:pos:R:3:forces:R:3 energy=1.0625960353643797 pbc="F F F"
Lu       0.00000000       0.00000000       0.00000000       0.00000000       0.00000000      -4.21695232
Lu       0.00000000       0.00000000       1.23232323       0.00000000       0.00000000       4.21695232
2
Properties=species:S:1:pos:R:3:forces:R:3 energy=0.7693980950980761 pbc="F F F"
Lu       0.00000000       0.00000000       0.00000000       0.00000000       0.00000000      -5.79460287
Lu       0.00000000       0.00000000       1.29191919       0.00000000       0.00000000       5.79460287
2
Properties=species:S:1:pos:R:3:forces:R:3 energy=0.3679873308674114 pbc="F F F"
Lu       0.00000000       0.00000000       0.00000000       0.00000000       0.00000000      -7.55272961
Lu       0.00000000       0.00000000       1.35151515       0.00000000       0.00000000       7.55272961
2
Properties=species:S:1:pos:R:3:forces:R:3 energy=-0.09617399911448443 pbc="F F F"
Lu       0.00000000       0.00000000       0.00000000       0.00000000       0.00000000      -7.58050966
Lu       0.00000000       0.00000000       1.41111111       0.00000000       0.00000000       7.58050966
2
Properties=species:S:1:pos:R:3:forces:R:3 energy=-0.47260223216480923 pbc="F F F"
Lu       0.00000000       0.00000000       0.00000000       0.00000000       0.00000000      -4.51765776
Lu       0.00000000       0.00000000       1.47070707       0.00000000       0.00000000       4.51765776
2
Properties=species:S:1:pos:R:3:forces:R:3 energy=-0.5868626862434436 pbc="F F F"
Lu       0.00000000       0.00000000       0.00000000       0.00000000       0.00000000       0.86680973
Lu       0.00000000       0.00000000       1.53030303       0.00000000       0.00000000      -0.86680973
2
Properties=species:S:1:pos:R:3:forces:R:3 energy=-0.3801251864830348 pbc="F F F"
Lu       0.00000000       0.00000000       0.00000000       0.00000000       0.00000000       5.72664452
Lu       0.00000000       0.00000000       1.58989899       0.00000000       0.00000000      -5.72664452
2
Properties=species:S:1:pos:R:3:forces:R:3 energy=0.03676049331742283 pbc="F F F"
Lu       0.00000000       0.00000000       0.00000000       0.00000000       0.00000000       7.71008444
Lu       0.00000000       0.00000000       1.64949495       0.00000000       0.00000000      -7.71008444
2
Properties=species:S:1:pos:R:3:forces:R:3 energy=0.4798009120011043 pbc="F F F"
Lu       0.00000000       0.00000000       0.00000000       0.00000000       0.00000000       6.77002287
Lu       0.00000000       0.00000000       1.70909091       0.00000000       0.00000000      -6.77002287
2
Properties=species:S:1:pos:R:3:forces:R:3 energy=0.8136734947674883 pbc="F F F"
Lu       0.00000000       0.00000000       0.00000000       0.00000000       0.00000000       4.31596422
Lu       0.00000000       0.00000000       1.76868687       0.00000000       0.00000000      -4.31596422
2
Properties=species:S:1:pos:R:3:forces:R:3 energy=0.9933392242347162 pbc="F F F"
Lu       0.00000000       0.00000000       0.00000000       0.00000000       0.00000000       1.79530203
Lu       0.00000000       0.00000000       1.82828283       0.00000000       0.00000000      -1.79530203
2
Properties=species:S:1:pos:R:3:forces:R:3 energy=1.043096595584271 pbc="F F F"
Lu       0.00000000       0.00000000       0.00000000       0.00000000       0.00000000       0.02040134
Lu       0.00000000       0.00000000       1.88787879       0.00000000       0.00000000      -0.02040134
2
Properties=species:S:1:pos:R:3:forces:R:3 energy=1.010612958453787 pbc="F F F"
Lu       0.00000000       0.00000000       0.00000000       0.00000000       0.00000000      -1.01890409
Lu       0.00000000       0.00000000       1.94747475       0.00000000       0.00000000       1.01890409
2
Properties=species:S:1:pos:R:3:forces:R:3 energy=0.9289580841659791 pbc="F F F"
Lu       0.00000000       0.00000000       0.00000000       0.00000000       0.00000000      -1.68214321
Lu       0.00000000       0.00000000       2.00707071       0.00000000       0.00000000       1.68214321
2
Properties=species:S:1:pos:R:3:forces:R:3 energy=0.8134178828167301 pbc="F F F"
Lu       0.00000000       0.00000000       0.00000000       0.00000000       0.00000000      -2.17507172
Lu       0.00000000       0.00000000       2.06666667       0.00000000       0.00000000       2.17507172
2
Properties=species:S:1:pos:R:3:forces:R:3 energy=0.6715742956405684 pbc="F F F"
Lu       0.00000000       0.00000000       0.00000000       0.00000000       0.00000000      -2.57294083
Lu       0.00000000       0.00000000       2.12626263       0.00000000       0.00000000       2.57294083
2
Properties=species:S:1:pos:R:3:forces:R:3 energy=0.507937887211901 pbc="F F F"
Lu       0.00000000       0.00000000       0.00000000       0.00000000       0.00000000      -2.90998054
Lu       0.00000000       0.00000000       2.18585859       0.00000000       0.00000000       2.90998054
2
Properties=species:S:1:pos:R:3:forces:R:3 energy=0.32569475104537915 pbc="F F F"
Lu       0.00000000       0.00000000       0.00000000       0.00000000       0.00000000      -3.19779825
Lu       0.00000000       0.00000000       2.24545455       0.00000000       0.00000000       3.19779825
2
Properties=species:S:1:pos:R:3:forces:R:3 energy=0.1278446476165958 pbc="F F F"
Lu       0.00000000       0.00000000       0.00000000       0.00000000       0.00000000      -3.43206811
Lu       0.00000000       0.00000000       2.30505051       0.00000000       0.00000000       3.43206811
2
Properties=species:S:1:pos:R:3:forces:R:3 energy=-0.08205856139793741 pbc="F F F"
Lu       0.00000000       0.00000000       0.00000000       0.00000000       0.00000000      -3.59972835
Lu       0.00000000       0.00000000       2.36464646       0.00000000       0.00000000       3.59972835
2
Properties=species:S:1:pos:R:3:forces:R:3 energy=-0.2995827234578565 pbc="F F F"
Lu       0.00000000       0.00000000       0.00000000       0.00000000       0.00000000      -3.68544102
Lu       0.00000000       0.00000000       2.42424242       0.00000000       0.00000000       3.68544102
2
Properties=species:S:1:pos:R:3:forces:R:3 energy=-0.5194837705586003 pbc="F F F"
Lu       0.00000000       0.00000000       0.00000000       0.00000000       0.00000000      -3.67845392
Lu       0.00000000       0.00000000       2.48383838       0.00000000       0.00000000       3.67845392
2
Properties=species:S:1:pos:R:3:forces:R:3 energy=-0.7361737604927052 pbc="F F F"
Lu       0.00000000       0.00000000       0.00000000       0.00000000       0.00000000      -3.57872701
Lu       0.00000000       0.00000000       2.54343434       0.00000000       0.00000000       3.57872701
2
Properties=species:S:1:pos:R:3:forces:R:3 energy=-0.9444423223027351 pbc="F F F"
Lu       0.00000000       0.00000000       0.00000000       0.00000000       0.00000000      -3.39892817
Lu       0.00000000       0.00000000       2.60303030       0.00000000       0.00000000       3.39892817
2
Properties=species:S:1:pos:R:3:forces:R:3 energy=-1.1401244796405745 pbc="F F F"
Lu       0.00000000       0.00000000       0.00000000       0.00000000       0.00000000      -3.15996861
Lu       0.00000000       0.00000000       2.66262626       0.00000000       0.00000000       3.15996861
2
Properties=species:S:1:pos:R:3:forces:R:3 energy=-1.3203256885637837 pbc="F F F"
Lu       0.00000000       0.00000000       0.00000000       0.00000000       0.00000000      -2.88249612
Lu       0.00000000       0.00000000       2.72222222       0.00000000       0.00000000       2.88249612
2
Properties=species:S:1:pos:R:3:forces:R:3 energy=-1.4832088133669594 pbc="F F F"
Lu       0.00000000       0.00000000       0.00000000       0.00000000       0.00000000      -2.58034492
Lu       0.00000000       0.00000000       2.78181818       0.00000000       0.00000000       2.58034492
2
Properties=species:S:1:pos:R:3:forces:R:3 energy=-1.6275178849740954 pbc="F F F"
Lu       0.00000000       0.00000000       0.00000000       0.00000000       0.00000000      -2.25968528
Lu       0.00000000       0.00000000       2.84141414       0.00000000       0.00000000       2.25968528
2
Properties=species:S:1:pos:R:3:forces:R:3 energy=-1.7522188541529624 pbc="F F F"
Lu       0.00000000       0.00000000       0.00000000       0.00000000       0.00000000      -1.92258418
Lu       0.00000000       0.00000000       2.90101010       0.00000000       0.00000000       1.92258418
2
Properties=species:S:1:pos:R:3:forces:R:3 energy=-1.8563898982979534 pbc="F F F"
Lu       0.00000000       0.00000000       0.00000000       0.00000000       0.00000000      -1.57126343
Lu       0.00000000       0.00000000       2.96060606       0.00000000       0.00000000       1.57126343
2
Properties=species:S:1:pos:R:3:forces:R:3 energy=-1.9393067792811411 pbc="F F F"
Lu       0.00000000       0.00000000       0.00000000       0.00000000       0.00000000      -1.21030498
Lu       0.00000000       0.00000000       3.02020202       0.00000000       0.00000000       1.21030498
2
Properties=species:S:1:pos:R:3:forces:R:3 energy=-2.0005934324634627 pbc="F F F"
Lu       0.00000000       0.00000000       0.00000000       0.00000000       0.00000000      -0.84658718
Lu       0.00000000       0.00000000       3.07979798       0.00000000       0.00000000       0.84658718
2
Properties=species:S:1:pos:R:3:forces:R:3 energy=-2.0403212950393277 pbc="F F F"
Lu       0.00000000       0.00000000       0.00000000       0.00000000       0.00000000      -0.48827609
Lu       0.00000000       0.00000000       3.13939394       0.00000000       0.00000000       0.48827609
2
Properties=species:S:1:pos:R:3:forces:R:3 energy=-2.059072245709714 pbc="F F F"
Lu       0.00000000       0.00000000       0.00000000       0.00000000       0.00000000      -0.14413284
Lu       0.00000000       0.00000000       3.19898990       0.00000000       0.00000000       0.14413284
2
Properties=species:S:1:pos:R:3:forces:R:3 energy=-2.057967510351038 pbc="F F F"
Lu       0.00000000       0.00000000       0.00000000       0.00000000       0.00000000       0.17644154
Lu       0.00000000       0.00000000       3.25858586       0.00000000       0.00000000      -0.17644154
2
Properties=species:S:1:pos:R:3:forces:R:3 energy=-2.03871149585163 pbc="F F F"
Lu       0.00000000       0.00000000       0.00000000       0.00000000       0.00000000       0.46328557
Lu       0.00000000       0.00000000       3.31818182       0.00000000       0.00000000      -0.46328557
2
Properties=species:S:1:pos:R:3:forces:R:3 energy=-2.0036251226994635 pbc="F F F"
Lu       0.00000000       0.00000000       0.00000000       0.00000000       0.00000000       0.70601737
Lu       0.00000000       0.00000000       3.37777778       0.00000000       0.00000000      -0.70601737
2
Properties=species:S:1:pos:R:3:forces:R:3 energy=-1.9556200671040629 pbc="F F F"
Lu       0.00000000       0.00000000       0.00000000       0.00000000       0.00000000       0.89551419
Lu       0.00000000       0.00000000       3.43737374       0.00000000       0.00000000      -0.89551419
2
Properties=species:S:1:pos:R:3:forces:R:3 energy=-1.8980633732577012 pbc="F F F"
Lu       0.00000000       0.00000000       0.00000000       0.00000000       0.00000000       1.02596021
Lu       0.00000000       0.00000000       3.49696970       0.00000000       0.00000000      -1.02596021
2
Properties=species:S:1:pos:R:3:forces:R:3 energy=-1.8345238790013791 pbc="F F F"
Lu       0.00000000       0.00000000       0.00000000       0.00000000       0.00000000       1.09668493
Lu       0.00000000       0.00000000       3.55656566       0.00000000       0.00000000      -1.09668493
2
Properties=species:S:1:pos:R:3:forces:R:3 energy=-1.7684321659107474 pbc="F F F"
Lu       0.00000000       0.00000000       0.00000000       0.00000000       0.00000000       1.11299157
Lu       0.00000000       0.00000000       3.61616162       0.00000000       0.00000000      -1.11299157
2
Properties=species:S:1:pos:R:3:forces:R:3 energy=-1.7027364060769141 pbc="F F F"
Lu       0.00000000       0.00000000       0.00000000       0.00000000       0.00000000       1.08553219
Lu       0.00000000       0.00000000       3.67575758       0.00000000       0.00000000      -1.08553219
2
Properties=species:S:1:pos:R:3:forces:R:3 energy=-1.639636087735407 pbc="F F F"
Lu       0.00000000       0.00000000       0.00000000       0.00000000       0.00000000       1.02836573
Lu       0.00000000       0.00000000       3.73535354       0.00000000       0.00000000      -1.02836573
2
Properties=species:S:1:pos:R:3:forces:R:3 energy=-1.5804581429750877 pbc="F F F"
Lu       0.00000000       0.00000000       0.00000000       0.00000000       0.00000000       0.95629823
Lu       0.00000000       0.00000000       3.79494949       0.00000000       0.00000000      -0.95629823
2
Properties=species:S:1:pos:R:3:forces:R:3 energy=-1.5256885278644996 pbc="F F F"
Lu       0.00000000       0.00000000       0.00000000       0.00000000       0.00000000       0.88232070
Lu       0.00000000       0.00000000       3.85454545       0.00000000       0.00000000      -0.88232070
2
Properties=species:S:1:pos:R:3:forces:R:3 energy=-1.4751411725254306 pbc="F F F"
Lu       0.00000000       0.00000000       0.00000000       0.00000000       0.00000000       0.81584895
Lu       0.00000000       0.00000000       3.91414141       0.00000000       0.00000000      -0.81584895
2
Properties=species:S:1:pos:R:3:forces:R:3 energy=-1.4281910796434942 pbc="F F F"
Lu       0.00000000       0.00000000       0.00000000       0.00000000       0.00000000       0.76207674
Lu       0.00000000       0.00000000       3.97373737       0.00000000       0.00000000      -0.76207674
2
Properties=species:S:1:pos:R:3:forces:R:3 energy=-1.384025631489744 pbc="F F F"
Lu       0.00000000       0.00000000       0.00000000       0.00000000       0.00000000       0.72239047
Lu       0.00000000       0.00000000       4.03333333       0.00000000       0.00000000      -0.72239047
2
Properties=species:S:1:pos:R:3:forces:R:3 energy=-1.3418352614275117 pbc="F F F"
Lu       0.00000000       0.00000000       0.00000000       0.00000000       0.00000000       0.69537771
Lu       0.00000000       0.00000000       4.09292929       0.00000000       0.00000000      -0.69537771
2
Properties=species:S:1:pos:R:3:forces:R:3 energy=-1.300949441201515 pbc="F F F"
Lu       0.00000000       0.00000000       0.00000000       0.00000000       0.00000000       0.67804205
Lu       0.00000000       0.00000000       4.15252525       0.00000000       0.00000000      -0.67804205
2
Properties=species:S:1:pos:R:3:forces:R:3 energy=-1.2608968384475232 pbc="F F F"
Lu       0.00000000       0.00000000       0.00000000       0.00000000       0.00000000       0.66683573
Lu       0.00000000       0.00000000       4.21212121       0.00000000       0.00000000      -0.66683573
2
Properties=species:S:1:pos:R:3:forces:R:3 energy=-1.2214134355953343 pbc="F F F"
Lu       0.00000000       0.00000000       0.00000000       0.00000000       0.00000000       0.65838939
Lu       0.00000000       0.00000000       4.27171717       0.00000000       0.00000000      -0.65838939
2
Properties=species:S:1:pos:R:3:forces:R:3 energy=-1.1824227791405766 pbc="F F F"
Lu       0.00000000       0.00000000       0.00000000       0.00000000       0.00000000       0.64993173
Lu       0.00000000       0.00000000       4.33131313       0.00000000       0.00000000      -0.64993173
2
Properties=species:S:1:pos:R:3:forces:R:3 energy=-1.1439870733257225 pbc="F F F"
Lu       0.00000000       0.00000000       0.00000000       0.00000000       0.00000000       0.63948870
Lu       0.00000000       0.00000000       4.39090909       0.00000000       0.00000000      -0.63948870
2
Properties=species:S:1:pos:R:3:forces:R:3 energy=-1.1062634049882465 pbc="F F F"
Lu       0.00000000       0.00000000       0.00000000       0.00000000       0.00000000       0.62590480
Lu       0.00000000       0.00000000       4.45050505       0.00000000       0.00000000      -0.62590480
2
Properties=species:S:1:pos:R:3:forces:R:3 energy=-1.0694556970492441 pbc="F F F"
Lu       0.00000000       0.00000000       0.00000000       0.00000000       0.00000000       0.60875165
Lu       0.00000000       0.00000000       4.51010101       0.00000000       0.00000000      -0.60875165
2
Properties=species:S:1:pos:R:3:forces:R:3 energy=-1.0337744336125445 pbc="F F F"
Lu       0.00000000       0.00000000       0.00000000       0.00000000       0.00000000       0.58810383
Lu       0.00000000       0.00000000       4.56969697       0.00000000       0.00000000      -0.58810383
2
Properties=species:S:1:pos:R:3:forces:R:3 energy=-0.999420612228083 pbc="F F F"
Lu       0.00000000       0.00000000       0.00000000       0.00000000       0.00000000       0.56429636
Lu       0.00000000       0.00000000       4.62929293       0.00000000       0.00000000      -0.56429636
2
Properties=species:S:1:pos:R:3:forces:R:3 energy=-0.9665704775992427 pbc="F F F"
Lu       0.00000000       0.00000000       0.00000000       0.00000000       0.00000000       0.53772837
Lu       0.00000000       0.00000000       4.68888889       0.00000000       0.00000000      -0.53772837
2
Properties=species:S:1:pos:R:3:forces:R:3 energy=-0.9353757294911638 pbc="F F F"
Lu       0.00000000       0.00000000       0.00000000       0.00000000       0.00000000       0.50874639
Lu       0.00000000       0.00000000       4.74848485       0.00000000       0.00000000      -0.50874639
2
Properties=species:S:1:pos:R:3:forces:R:3 energy=-0.9059731458370236 pbc="F F F"
Lu       0.00000000       0.00000000       0.00000000       0.00000000       0.00000000       0.47769737
Lu       0.00000000       0.00000000       4.80808081       0.00000000       0.00000000      -0.47769737
2
Properties=species:S:1:pos:R:3:forces:R:3 energy=-0.878470715030689 pbc="F F F"
Lu       0.00000000       0.00000000       0.00000000       0.00000000       0.00000000       0.44500431
Lu       0.00000000       0.00000000       4.86767677       0.00000000       0.00000000      -0.44500431
2
Properties=species:S:1:pos:R:3:forces:R:3 energy=-0.8529521419530363 pbc="F F F"
Lu       0.00000000       0.00000000       0.00000000       0.00000000       0.00000000       0.41125807
Lu       0.00000000       0.00000000       4.92727273       0.00000000       0.00000000      -0.41125807
2
Properties=species:S:1:pos:R:3:forces:R:3 energy=-0.8294579127018454 pbc="F F F"
Lu       0.00000000       0.00000000       0.00000000       0.00000000       0.00000000       0.37720898
Lu       0.00000000       0.00000000       4.98686869       0.00000000       0.00000000      -0.37720898
2
Properties=species:S:1:pos:R:3:forces:R:3 energy=-0.8079839009262391 pbc="F F F"
Lu       0.00000000       0.00000000       0.00000000       0.00000000       0.00000000       0.34366861
Lu       0.00000000       0.00000000       5.04646465       0.00000000       0.00000000      -0.34366861
2
Properties=species:S:1:pos:R:3:forces:R:3 energy=-0.7884726580449491 pbc="F F F"
Lu       0.00000000       0.00000000       0.00000000       0.00000000       0.00000000       0.31134897
Lu       0.00000000       0.00000000       5.10606061       0.00000000       0.00000000      -0.31134897
2
Properties=species:S:1:pos:R:3:forces:R:3 energy=-0.770837047779893 pbc="F F F"
Lu       0.00000000       0.00000000       0.00000000       0.00000000       0.00000000       0.28071073
Lu       0.00000000       0.00000000       5.16565657       0.00000000       0.00000000      -0.28071073
2
Properties=species:S:1:pos:R:3:forces:R:3 energy=-0.7549753598093937 pbc="F F F"
Lu       0.00000000       0.00000000       0.00000000       0.00000000       0.00000000       0.25193000
Lu       0.00000000       0.00000000       5.22525253       0.00000000       0.00000000      -0.25193000
2
Properties=species:S:1:pos:R:3:forces:R:3 energy=-0.7407753769712068 pbc="F F F"
Lu       0.00000000       0.00000000       0.00000000       0.00000000       0.00000000       0.22490402
Lu       0.00000000       0.00000000       5.28484848       0.00000000       0.00000000      -0.22490402
2
Properties=species:S:1:pos:R:3:forces:R:3 energy=-0.7281385905874103 pbc="F F F"
Lu       0.00000000       0.00000000       0.00000000       0.00000000       0.00000000       0.19938926
Lu       0.00000000       0.00000000       5.34444444       0.00000000       0.00000000      -0.19938926
2
Properties=species:S:1:pos:R:3:forces:R:3 energy=-0.7169848510425909 pbc="F F F"
Lu       0.00000000       0.00000000       0.00000000       0.00000000       0.00000000       0.17510737
Lu       0.00000000       0.00000000       5.40404040       0.00000000       0.00000000      -0.17510737
2
Properties=species:S:1:pos:R:3:forces:R:3 energy=-0.707244735221491 pbc="F F F"
Lu       0.00000000       0.00000000       0.00000000       0.00000000       0.00000000       0.15187839
Lu       0.00000000       0.00000000       5.46363636       0.00000000       0.00000000      -0.15187839
2
Properties=species:S:1:pos:R:3:forces:R:3 energy=-0.6988640346963471 pbc="F F F"
Lu       0.00000000       0.00000000       0.00000000       0.00000000       0.00000000       0.12967023
Lu       0.00000000       0.00000000       5.52323232       0.00000000       0.00000000      -0.12967023
2
Properties=species:S:1:pos:R:3:forces:R:3 energy=-0.6917690436488758 pbc="F F F"
Lu       0.00000000       0.00000000       0.00000000       0.00000000       0.00000000       0.10861184
Lu       0.00000000       0.00000000       5.58282828       0.00000000       0.00000000      -0.10861184
2
Properties=species:S:1:pos:R:3:forces:R:3 energy=-0.6858898130172508 pbc="F F F"
Lu       0.00000000       0.00000000       0.00000000       0.00000000       0.00000000       0.08898254
Lu       0.00000000       0.00000000       5.64242424       0.00000000       0.00000000      -0.08898254
2
Properties=species:S:1:pos:R:3:forces:R:3 energy=-0.6811262201980907 pbc="F F F"
Lu       0.00000000       0.00000000       0.00000000       0.00000000       0.00000000       0.07113355
Lu       0.00000000       0.00000000       5.70202020       0.00000000       0.00000000      -0.07113355
2
Properties=species:S:1:pos:R:3:forces:R:3 energy=-0.6773679080920592 pbc="F F F"
Lu       0.00000000       0.00000000       0.00000000       0.00000000       0.00000000       0.05549263
Lu       0.00000000       0.00000000       5.76161616       0.00000000       0.00000000      -0.05549263
2
Properties=species:S:1:pos:R:3:forces:R:3 energy=-0.6744612445397511 pbc="F F F"
Lu       0.00000000       0.00000000       0.00000000       0.00000000       0.00000000       0.04248188
Lu       0.00000000       0.00000000       5.82121212       0.00000000       0.00000000      -0.04248188
2
Properties=species:S:1:pos:R:3:forces:R:3 energy=-0.6722451801432219 pbc="F F F"
Lu       0.00000000       0.00000000       0.00000000       0.00000000       0.00000000       0.03251564
Lu       0.00000000       0.00000000       5.88080808       0.00000000       0.00000000      -0.03251564
2
Properties=species:S:1:pos:R:3:forces:R:3 energy=-0.6705171506573776 pbc="F F F"
Lu       0.00000000       0.00000000       0.00000000       0.00000000       0.00000000       0.02596602
Lu       0.00000000       0.00000000       5.94040404       0.00000000       0.00000000      -0.02596602
2
Properties=species:S:1:pos:R:3:forces:R:3 energy=-0.6690739320982 pbc="F F F"
Lu       0.00000000       0.00000000       0.00000000       0.00000000       0.00000000       0.02315903
Lu       0.00000000       0.00000000       6.00000000       0.00000000       0.00000000      -0.02315903
