2
Properties=species:S:1:pos:R:3:forces:R:3 energy=1138.5869236455087 pbc="F F F"
Mg       0.00000000       0.00000000       0.00000000       0.00000000       0.00000000  -15964.67382812
Mg       0.00000000       0.00000000       0.18000000       0.00000000       0.00000000   15964.67382812
2
Properties=species:S:1:pos:R:3:forces:R:3 energy=539.7023411259776 pbc="F F F"
Mg       0.00000000       0.00000000       0.00000000       0.00000000       0.00000000   -6229.19824219
Mg       0.00000000       0.00000000       0.23878788       0.00000000       0.00000000    6229.19824219
2
Properties=species:S:1:pos:R:3:forces:R:3 energy=289.0277805791025 pbc="F F F"
Mg       0.00000000       0.00000000       0.00000000       0.00000000       0.00000000   -2828.86376953
Mg       0.00000000       0.00000000       0.29757576       0.00000000       0.00000000    2828.86376953
2
Properties=species:S:1:pos:R:3:forces:R:3 energy=169.5737095405163 pbc="F F F"
Mg       0.00000000       0.00000000       0.00000000       0.00000000       0.00000000   -1423.14868164
Mg       0.00000000       0.00000000       0.35636364       0.00000000       0.00000000    1423.14868164
2
Properties=species:S:1:pos:R:3:forces:R:3 energy=107.44207960933993 pbc="F F F"
Mg       0.00000000       0.00000000       0.00000000       0.00000000       0.00000000    -767.56805420
Mg       0.00000000       0.00000000       0.41515152       0.00000000       0.00000000     767.56805420
2
Properties=species:S:1:pos:R:3:forces:R:3 energy=73.17970475041717 pbc="F F F"
Mg       0.00000000       0.00000000       0.00000000       0.00000000       0.00000000    -433.14724731
Mg       0.00000000       0.00000000       0.47393939       0.00000000       0.00000000     433.14724731
2
Properties=species:S:1:pos:R:3:forces:R:3 energy=53.5928822913367 pbc="F F F"
Mg       0.00000000       0.00000000       0.00000000       0.00000000       0.00000000    -250.65751648
Mg       0.00000000       0.00000000       0.53272727       0.00000000       0.00000000     250.65751648
2
Properties=species:S:1:pos:R:3:forces:R:3 energy=42.20068952678826 pbc="F F F"
Mg       0.00000000       0.00000000       0.00000000       0.00000000       0.00000000    -146.30084229
Mg       0.00000000       0.00000000       0.59151515       0.00000000       0.00000000     146.30084229
2
Properties=species:S:1:pos:R:3:forces:R:3 energy=35.55144725871374 pbc="F F F"
Mg       0.00000000       0.00000000       0.00000000       0.00000000       0.00000000     -85.33749390
Mg       0.00000000       0.00000000       0.65030303       0.00000000       0.00000000      85.33749390
2
Properties=species:S:1:pos:R:3:forces:R:3 energy=31.664688663468713 pbc="F F F"
Mg       0.00000000       0.00000000       0.00000000       0.00000000       0.00000000     -50.29444885
Mg       0.00000000       0.00000000       0.70909091       0.00000000       0.00000000      50.29444885
2
Properties=species:S:1:pos:R:3:forces:R:3 energy=29.29473582473335 pbc="F F F"
Mg       0.00000000       0.00000000       0.00000000       0.00000000       0.00000000     -33.08320999
Mg       0.00000000       0.00000000       0.76787879       0.00000000       0.00000000      33.08320999
2
Properties=species:S:1:pos:R:3:forces:R:3 energy=27.40231455848763 pbc="F F F"
Mg       0.00000000       0.00000000       0.00000000       0.00000000       0.00000000     -34.62436295
Mg       0.00000000       0.00000000       0.82666667       0.00000000       0.00000000      34.62436295
2
Properties=species:S:1:pos:R:3:forces:R:3 energy=25.061849678075987 pbc="F F F"
Mg       0.00000000       0.00000000       0.00000000       0.00000000       0.00000000     -44.51321030
Mg       0.00000000       0.00000000       0.88545455       0.00000000       0.00000000      44.51321030
2
Properties=species:S:1:pos:R:3:forces:R:3 energy=22.243891771292944 pbc="F F F"
Mg       0.00000000       0.00000000       0.00000000       0.00000000       0.00000000     -50.80312347
Mg       0.00000000       0.00000000       0.94424242       0.00000000       0.00000000      50.80312347
2
Properties=species:S:1:pos:R:3:forces:R:3 energy=19.12715759271907 pbc="F F F"
Mg       0.00000000       0.00000000       0.00000000       0.00000000       0.00000000     -55.23181534
Mg       0.00000000       0.00000000       1.00303030       0.00000000       0.00000000      55.23181534
2
Properties=species:S:1:pos:R:3:forces:R:3 energy=15.738420690147812 pbc="F F F"
Mg       0.00000000       0.00000000       0.00000000       0.00000000       0.00000000     -59.88215637
Mg       0.00000000       0.00000000       1.06181818       0.00000000       0.00000000      59.88215637
2
Properties=species:S:1:pos:R:3:forces:R:3 energy=12.184519397603488 pbc="F F F"
Mg       0.00000000       0.00000000       0.00000000       0.00000000       0.00000000     -59.65891266
Mg       0.00000000       0.00000000       1.12060606       0.00000000       0.00000000      59.65891266
2
Properties=species:S:1:pos:R:3:forces:R:3 energy=8.878426317397908 pbc="F F F"
Mg       0.00000000       0.00000000       0.00000000       0.00000000       0.00000000     -51.84949112
Mg       0.00000000       0.00000000       1.17939394       0.00000000       0.00000000      51.84949112
2
Properties=species:S:1:pos:R:3:forces:R:3 energy=6.147528476672569 pbc="F F F"
Mg       0.00000000       0.00000000       0.00000000       0.00000000       0.00000000     -40.96757126
Mg       0.00000000       0.00000000       1.23818182       0.00000000       0.00000000      40.96757126
2
Properties=species:S:1:pos:R:3:forces:R:3 energy=4.041351332757737 pbc="F F F"
Mg       0.00000000       0.00000000       0.00000000       0.00000000       0.00000000     -30.97565460
Mg       0.00000000       0.00000000       1.29696970       0.00000000       0.00000000      30.97565460
2
Properties=species:S:1:pos:R:3:forces:R:3 energy=2.485221950596127 pbc="F F F"
Mg       0.00000000       0.00000000       0.00000000       0.00000000       0.00000000     -21.91916275
Mg       0.00000000       0.00000000       1.35575758       0.00000000       0.00000000      21.91916275
2
Properties=species:S:1:pos:R:3:forces:R:3 energy=1.485381202592783 pbc="F F F"
Mg       0.00000000       0.00000000       0.00000000       0.00000000       0.00000000     -11.99557590
Mg       0.00000000       0.00000000       1.41454545       0.00000000       0.00000000      11.99557590
2
Properties=species:S:1:pos:R:3:forces:R:3 energy=1.0446130679858652 pbc="F F F"
Mg       0.00000000       0.00000000       0.00000000       0.00000000       0.00000000      -3.60883379
Mg       0.00000000       0.00000000       1.47333333       0.00000000       0.00000000       3.60883379
2
Properties=species:S:1:pos:R:3:forces:R:3 energy=0.9768180146772276 pbc="F F F"
Mg       0.00000000       0.00000000       0.00000000       0.00000000       0.00000000       0.64873654
Mg       0.00000000       0.00000000       1.53212121       0.00000000       0.00000000      -0.64873654
2
Properties=species:S:1:pos:R:3:forces:R:3 energy=1.0641907176019254 pbc="F F F"
Mg       0.00000000       0.00000000       0.00000000       0.00000000       0.00000000       2.00607038
Mg       0.00000000       0.00000000       1.59090909       0.00000000       0.00000000      -2.00607038
2
Properties=species:S:1:pos:R:3:forces:R:3 energy=1.188408557905376 pbc="F F F"
Mg       0.00000000       0.00000000       0.00000000       0.00000000       0.00000000       2.08483648
Mg       0.00000000       0.00000000       1.64969697       0.00000000       0.00000000      -2.08483648
2
Properties=species:S:1:pos:R:3:forces:R:3 energy=1.2967904022946144 pbc="F F F"
Mg       0.00000000       0.00000000       0.00000000       0.00000000       0.00000000       1.50959957
Mg       0.00000000       0.00000000       1.70848485       0.00000000       0.00000000      -1.50959957
2
Properties=species:S:1:pos:R:3:forces:R:3 energy=1.3559788557817896 pbc="F F F"
Mg       0.00000000       0.00000000       0.00000000       0.00000000       0.00000000       0.43168020
Mg       0.00000000       0.00000000       1.76727273       0.00000000       0.00000000      -0.43168020
2
Properties=species:S:1:pos:R:3:forces:R:3 energy=1.3414862854003835 pbc="F F F"
Mg       0.00000000       0.00000000       0.00000000       0.00000000       0.00000000      -0.95008719
Mg       0.00000000       0.00000000       1.82606061       0.00000000       0.00000000       0.95008719
2
Properties=species:S:1:pos:R:3:forces:R:3 energy=1.2448583880144564 pbc="F F F"
Mg       0.00000000       0.00000000       0.00000000       0.00000000       0.00000000      -2.30268526
Mg       0.00000000       0.00000000       1.88484848       0.00000000       0.00000000       2.30268526
2
Properties=species:S:1:pos:R:3:forces:R:3 energy=1.0775763313499531 pbc="F F F"
Mg       0.00000000       0.00000000       0.00000000       0.00000000       0.00000000      -3.31320715
Mg       0.00000000       0.00000000       1.94363636       0.00000000       0.00000000       3.31320715
2
Properties=species:S:1:pos:R:3:forces:R:3 energy=0.864899669049187 pbc="F F F"
Mg       0.00000000       0.00000000       0.00000000       0.00000000       0.00000000      -3.84061313
Mg       0.00000000       0.00000000       2.00242424       0.00000000       0.00000000       3.84061313
2
Properties=species:S:1:pos:R:3:forces:R:3 energy=0.6347538421841378 pbc="F F F"
Mg       0.00000000       0.00000000       0.00000000       0.00000000       0.00000000      -3.92454386
Mg       0.00000000       0.00000000       2.06121212       0.00000000       0.00000000       3.92454386
2
Properties=species:S:1:pos:R:3:forces:R:3 energy=0.40975118706050695 pbc="F F F"
Mg       0.00000000       0.00000000       0.00000000       0.00000000       0.00000000      -3.68745732
Mg       0.00000000       0.00000000       2.12000000       0.00000000       0.00000000       3.68745732
2
Properties=species:S:1:pos:R:3:forces:R:3 energy=0.20513724192684785 pbc="F F F"
Mg       0.00000000       0.00000000       0.00000000       0.00000000       0.00000000      -3.24837279
Mg       0.00000000       0.00000000       2.17878788       0.00000000       0.00000000       3.24837279
2
Properties=species:S:1:pos:R:3:forces:R:3 energy=0.029940666540042973 pbc="F F F"
Mg       0.00000000       0.00000000       0.00000000       0.00000000       0.00000000      -2.70065284
Mg       0.00000000       0.00000000       2.23757576       0.00000000       0.00000000       2.70065284
2
Properties=species:S:1:pos:R:3:forces:R:3 energy=-0.11181943635943704 pbc="F F F"
Mg       0.00000000       0.00000000       0.00000000       0.00000000       0.00000000      -2.12334371
Mg       0.00000000       0.00000000       2.29636364       0.00000000       0.00000000       2.12334371
2
Properties=species:S:1:pos:R:3:forces:R:3 energy=-0.22048734714653923 pbc="F F F"
Mg       0.00000000       0.00000000       0.00000000       0.00000000       0.00000000      -1.58486521
Mg       0.00000000       0.00000000       2.35515152       0.00000000       0.00000000       1.58486521
2
Properties=species:S:1:pos:R:3:forces:R:3 energy=-0.2998645219892738 pbc="F F F"
Mg       0.00000000       0.00000000       0.00000000       0.00000000       0.00000000      -1.13229370
Mg       0.00000000       0.00000000       2.41393939       0.00000000       0.00000000       1.13229370
2
Properties=species:S:1:pos:R:3:forces:R:3 energy=-0.3556711482638376 pbc="F F F"
Mg       0.00000000       0.00000000       0.00000000       0.00000000       0.00000000      -0.78368831
Mg       0.00000000       0.00000000       2.47272727       0.00000000       0.00000000       0.78368831
2
Properties=species:S:1:pos:R:3:forces:R:3 energy=-0.3939368948724524 pbc="F F F"
Mg       0.00000000       0.00000000       0.00000000       0.00000000       0.00000000      -0.53318816
Mg       0.00000000       0.00000000       2.53151515       0.00000000       0.00000000       0.53318816
2
Properties=species:S:1:pos:R:3:forces:R:3 energy=-0.4199366617364785 pbc="F F F"
Mg       0.00000000       0.00000000       0.00000000       0.00000000       0.00000000      -0.36302578
Mg       0.00000000       0.00000000       2.59030303       0.00000000       0.00000000       0.36302578
2
Properties=species:S:1:pos:R:3:forces:R:3 energy=-0.4378055480904116 pbc="F F F"
Mg       0.00000000       0.00000000       0.00000000       0.00000000       0.00000000      -0.25345135
Mg       0.00000000       0.00000000       2.64909091       0.00000000       0.00000000       0.25345135
2
Properties=species:S:1:pos:R:3:forces:R:3 energy=-0.45058839569296955 pbc="F F F"
Mg       0.00000000       0.00000000       0.00000000       0.00000000       0.00000000      -0.18747832
Mg       0.00000000       0.00000000       2.70787879       0.00000000       0.00000000       0.18747832
2
Properties=species:S:1:pos:R:3:forces:R:3 energy=-0.4604395636335575 pbc="F F F"
Mg       0.00000000       0.00000000       0.00000000       0.00000000       0.00000000      -0.15176556
Mg       0.00000000       0.00000000       2.76666667       0.00000000       0.00000000       0.15176556
2
Properties=species:S:1:pos:R:3:forces:R:3 energy=-0.4688127451991946 pbc="F F F"
Mg       0.00000000       0.00000000       0.00000000       0.00000000       0.00000000      -0.13549508
Mg       0.00000000       0.00000000       2.82545455       0.00000000       0.00000000       0.13549508
2
Properties=species:S:1:pos:R:3:forces:R:3 energy=-0.4765617059880707 pbc="F F F"
Mg       0.00000000       0.00000000       0.00000000       0.00000000       0.00000000      -0.12899333
Mg       0.00000000       0.00000000       2.88424242       0.00000000       0.00000000       0.12899333
2
Properties=species:S:1:pos:R:3:forces:R:3 energy=-0.4839958927040075 pbc="F F F"
Mg       0.00000000       0.00000000       0.00000000       0.00000000       0.00000000      -0.12342669
Mg       0.00000000       0.00000000       2.94303030       0.00000000       0.00000000       0.12342669
2
Properties=species:S:1:pos:R:3:forces:R:3 energy=-0.49095556381300964 pbc="F F F"
Mg       0.00000000       0.00000000       0.00000000       0.00000000       0.00000000      -0.11195737
Mg       0.00000000       0.00000000       3.00181818       0.00000000       0.00000000       0.11195737
2
Properties=species:S:1:pos:R:3:forces:R:3 energy=-0.49697813391858703 pbc="F F F"
Mg       0.00000000       0.00000000       0.00000000       0.00000000       0.00000000      -0.09138604
Mg       0.00000000       0.00000000       3.06060606       0.00000000       0.00000000       0.09138604
2
Properties=species:S:1:pos:R:3:forces:R:3 energy=-0.5015392826050582 pbc="F F F"
Mg       0.00000000       0.00000000       0.00000000       0.00000000       0.00000000      -0.06270076
Mg       0.00000000       0.00000000       3.11939394       0.00000000       0.00000000       0.06270076
2
Properties=species:S:1:pos:R:3:forces:R:3 energy=-0.5042629651004407 pbc="F F F"
Mg       0.00000000       0.00000000       0.00000000       0.00000000       0.00000000      -0.02952654
Mg       0.00000000       0.00000000       3.17818182       0.00000000       0.00000000       0.02952654
2
Properties=species:S:1:pos:R:3:forces:R:3 energy=-0.5049787389628015 pbc="F F F"
Mg       0.00000000       0.00000000       0.00000000       0.00000000       0.00000000       0.00545922
Mg       0.00000000       0.00000000       3.23696970       0.00000000       0.00000000      -0.00545922
2
Properties=species:S:1:pos:R:3:forces:R:3 energy=-0.5035548459587242 pbc="F F F"
Mg       0.00000000       0.00000000       0.00000000       0.00000000       0.00000000       0.04394123
Mg       0.00000000       0.00000000       3.29575758       0.00000000       0.00000000      -0.04394123
2
Properties=species:S:1:pos:R:3:forces:R:3 energy=-0.49965831920521725 pbc="F F F"
Mg       0.00000000       0.00000000       0.00000000       0.00000000       0.00000000       0.09009311
Mg       0.00000000       0.00000000       3.35454545       0.00000000       0.00000000      -0.09009311
2
Properties=species:S:1:pos:R:3:forces:R:3 energy=-0.49281835787634587 pbc="F F F"
Mg       0.00000000       0.00000000       0.00000000       0.00000000       0.00000000       0.14331855
Mg       0.00000000       0.00000000       3.41333333       0.00000000       0.00000000      -0.14331855
2
Properties=species:S:1:pos:R:3:forces:R:3 energy=-0.4828071085966254 pbc="F F F"
Mg       0.00000000       0.00000000       0.00000000       0.00000000       0.00000000       0.19658771
Mg       0.00000000       0.00000000       3.47212121       0.00000000       0.00000000      -0.19658771
2
Properties=species:S:1:pos:R:3:forces:R:3 energy=-0.46984599919779635 pbc="F F F"
Mg       0.00000000       0.00000000       0.00000000       0.00000000       0.00000000       0.24278213
Mg       0.00000000       0.00000000       3.53090909       0.00000000       0.00000000      -0.24278213
2
Properties=species:S:1:pos:R:3:forces:R:3 energy=-0.45446475440937584 pbc="F F F"
Mg       0.00000000       0.00000000       0.00000000       0.00000000       0.00000000       0.27871850
Mg       0.00000000       0.00000000       3.58969697       0.00000000       0.00000000      -0.27871850
2
Properties=species:S:1:pos:R:3:forces:R:3 energy=-0.4372789689297478 pbc="F F F"
Mg       0.00000000       0.00000000       0.00000000       0.00000000       0.00000000       0.30430654
Mg       0.00000000       0.00000000       3.64848485       0.00000000       0.00000000      -0.30430654
2
Properties=species:S:1:pos:R:3:forces:R:3 energy=-0.41886434597024214 pbc="F F F"
Mg       0.00000000       0.00000000       0.00000000       0.00000000       0.00000000       0.32079029
Mg       0.00000000       0.00000000       3.70727273       0.00000000       0.00000000      -0.32079029
2
Properties=species:S:1:pos:R:3:forces:R:3 energy=-0.3997078468018372 pbc="F F F"
Mg       0.00000000       0.00000000       0.00000000       0.00000000       0.00000000       0.32981464
Mg       0.00000000       0.00000000       3.76606061       0.00000000       0.00000000      -0.32981464
2
Properties=species:S:1:pos:R:3:forces:R:3 energy=-0.3801992370125026 pbc="F F F"
Mg       0.00000000       0.00000000       0.00000000       0.00000000       0.00000000       0.33305693
Mg       0.00000000       0.00000000       3.82484848       0.00000000       0.00000000      -0.33305693
2
Properties=species:S:1:pos:R:3:forces:R:3 energy=-0.36063150850952685 pbc="F F F"
Mg       0.00000000       0.00000000       0.00000000       0.00000000       0.00000000       0.33205029
Mg       0.00000000       0.00000000       3.88363636       0.00000000       0.00000000      -0.33205029
2
Properties=species:S:1:pos:R:3:forces:R:3 energy=-0.34121620657835255 pbc="F F F"
Mg       0.00000000       0.00000000       0.00000000       0.00000000       0.00000000       0.32806101
Mg       0.00000000       0.00000000       3.94242424       0.00000000       0.00000000      -0.32806101
2
Properties=species:S:1:pos:R:3:forces:R:3 energy=-0.3220994456180722 pbc="F F F"
Mg       0.00000000       0.00000000       0.00000000       0.00000000       0.00000000       0.32203463
Mg       0.00000000       0.00000000       4.00121212       0.00000000       0.00000000      -0.32203463
2
Properties=species:S:1:pos:R:3:forces:R:3 energy=-0.3033802863055889 pbc="F F F"
Mg       0.00000000       0.00000000       0.00000000       0.00000000       0.00000000       0.31460425
Mg       0.00000000       0.00000000       4.06000000       0.00000000       0.00000000      -0.31460425
2
Properties=species:S:1:pos:R:3:forces:R:3 energy=-0.28512932661548385 pbc="F F F"
Mg       0.00000000       0.00000000       0.00000000       0.00000000       0.00000000       0.30616346
Mg       0.00000000       0.00000000       4.11878788       0.00000000       0.00000000      -0.30616346
2
Properties=species:S:1:pos:R:3:forces:R:3 energy=-0.26739796347487216 pbc="F F F"
Mg       0.00000000       0.00000000       0.00000000       0.00000000       0.00000000       0.29694915
Mg       0.00000000       0.00000000       4.17757576       0.00000000       0.00000000      -0.29694915
2
Properties=species:S:1:pos:R:3:forces:R:3 energy=-0.2502272607943328 pbc="F F F"
Mg       0.00000000       0.00000000       0.00000000       0.00000000       0.00000000       0.28710979
Mg       0.00000000       0.00000000       4.23636364       0.00000000       0.00000000      -0.28710979
2
Properties=species:S:1:pos:R:3:forces:R:3 energy=-0.23365072235787473 pbc="F F F"
Mg       0.00000000       0.00000000       0.00000000       0.00000000       0.00000000       0.27674958
Mg       0.00000000       0.00000000       4.29515152       0.00000000       0.00000000      -0.27674958
2
Properties=species:S:1:pos:R:3:forces:R:3 energy=-0.2176974275084633 pbc="F F F"
Mg       0.00000000       0.00000000       0.00000000       0.00000000       0.00000000       0.26593095
Mg       0.00000000       0.00000000       4.35393939       0.00000000       0.00000000      -0.26593095
2
Properties=species:S:1:pos:R:3:forces:R:3 energy=-0.20239269794847575 pbc="F F F"
Mg       0.00000000       0.00000000       0.00000000       0.00000000       0.00000000       0.25466880
Mg       0.00000000       0.00000000       4.41272727       0.00000000       0.00000000      -0.25466880
2
Properties=species:S:1:pos:R:3:forces:R:3 energy=-0.18776379502699853 pbc="F F F"
Mg       0.00000000       0.00000000       0.00000000       0.00000000       0.00000000       0.24293004
Mg       0.00000000       0.00000000       4.47151515       0.00000000       0.00000000      -0.24293004
2
Properties=species:S:1:pos:R:3:forces:R:3 energy=-0.1738402659883305 pbc="F F F"
Mg       0.00000000       0.00000000       0.00000000       0.00000000       0.00000000       0.23066017
Mg       0.00000000       0.00000000       4.53030303       0.00000000       0.00000000      -0.23066017
2
Properties=species:S:1:pos:R:3:forces:R:3 energy=-0.1606549469334989 pbc="F F F"
Mg       0.00000000       0.00000000       0.00000000       0.00000000       0.00000000       0.21782437
Mg       0.00000000       0.00000000       4.58909091       0.00000000       0.00000000      -0.21782437
2
Properties=species:S:1:pos:R:3:forces:R:3 energy=-0.1482397768858872 pbc="F F F"
Mg       0.00000000       0.00000000       0.00000000       0.00000000       0.00000000       0.20447552
Mg       0.00000000       0.00000000       4.64787879       0.00000000       0.00000000      -0.20447552
2
Properties=species:S:1:pos:R:3:forces:R:3 energy=-0.13662030113865342 pbc="F F F"
Mg       0.00000000       0.00000000       0.00000000       0.00000000       0.00000000       0.19078000
Mg       0.00000000       0.00000000       4.70666667       0.00000000       0.00000000      -0.19078000
2
Properties=species:S:1:pos:R:3:forces:R:3 energy=-0.12580978671195275 pbc="F F F"
Mg       0.00000000       0.00000000       0.00000000       0.00000000       0.00000000       0.17702574
Mg       0.00000000       0.00000000       4.76545455       0.00000000       0.00000000      -0.17702574
2
Properties=species:S:1:pos:R:3:forces:R:3 energy=-0.1158004843438229 pbc="F F F"
Mg       0.00000000       0.00000000       0.00000000       0.00000000       0.00000000       0.16356821
Mg       0.00000000       0.00000000       4.82424242       0.00000000       0.00000000      -0.16356821
2
Properties=species:S:1:pos:R:3:forces:R:3 energy=-0.10656568877921377 pbc="F F F"
Mg       0.00000000       0.00000000       0.00000000       0.00000000       0.00000000       0.15076071
Mg       0.00000000       0.00000000       4.88303030       0.00000000       0.00000000      -0.15076071
2
Properties=species:S:1:pos:R:3:forces:R:3 energy=-0.09805677097903479 pbc="F F F"
Mg       0.00000000       0.00000000       0.00000000       0.00000000       0.00000000       0.13887165
Mg       0.00000000       0.00000000       4.94181818       0.00000000       0.00000000      -0.13887165
2
Properties=species:S:1:pos:R:3:forces:R:3 energy=-0.0902165281446905 pbc="F F F"
Mg       0.00000000       0.00000000       0.00000000       0.00000000       0.00000000       0.12802854
Mg       0.00000000       0.00000000       5.00060606       0.00000000       0.00000000      -0.12802854
2
Properties=species:S:1:pos:R:3:forces:R:3 energy=-0.08298354177676957 pbc="F F F"
Mg       0.00000000       0.00000000       0.00000000       0.00000000       0.00000000       0.11819740
Mg       0.00000000       0.00000000       5.05939394       0.00000000       0.00000000      -0.11819740
2
Properties=species:S:1:pos:R:3:forces:R:3 energy=-0.0763029225272018 pbc="F F F"
Mg       0.00000000       0.00000000       0.00000000       0.00000000       0.00000000       0.10920024
Mg       0.00000000       0.00000000       5.11818182       0.00000000       0.00000000      -0.10920024
2
Properties=species:S:1:pos:R:3:forces:R:3 energy=-0.07013342285789659 pbc="F F F"
Mg       0.00000000       0.00000000       0.00000000       0.00000000       0.00000000       0.10077009
Mg       0.00000000       0.00000000       5.17696970       0.00000000       0.00000000      -0.10077009
2
Properties=species:S:1:pos:R:3:forces:R:3 energy=-0.06444981447493066 pbc="F F F"
Mg       0.00000000       0.00000000       0.00000000       0.00000000       0.00000000       0.09262017
Mg       0.00000000       0.00000000       5.23575758       0.00000000       0.00000000      -0.09262017
2
Properties=species:S:1:pos:R:3:forces:R:3 energy=-0.05924294534934675 pbc="F F F"
Mg       0.00000000       0.00000000       0.00000000       0.00000000       0.00000000       0.08451774
Mg       0.00000000       0.00000000       5.29454545       0.00000000       0.00000000      -0.08451774
2
Properties=species:S:1:pos:R:3:forces:R:3 energy=-0.054514101061073884 pbc="F F F"
Mg       0.00000000       0.00000000       0.00000000       0.00000000       0.00000000       0.07633099
Mg       0.00000000       0.00000000       5.35333333       0.00000000       0.00000000      -0.07633099
2
Properties=species:S:1:pos:R:3:forces:R:3 energy=-0.050269782817893044 pbc="F F F"
Mg       0.00000000       0.00000000       0.00000000       0.00000000       0.00000000       0.06804693
Mg       0.00000000       0.00000000       5.41212121       0.00000000       0.00000000      -0.06804693
2
Properties=species:S:1:pos:R:3:forces:R:3 energy=-0.04651357796056423 pbc="F F F"
Mg       0.00000000       0.00000000       0.00000000       0.00000000       0.00000000       0.05975726
Mg       0.00000000       0.00000000       5.47090909       0.00000000       0.00000000      -0.05975726
2
Properties=species:S:1:pos:R:3:forces:R:3 energy=-0.04324084569899078 pbc="F F F"
Mg       0.00000000       0.00000000       0.00000000       0.00000000       0.00000000       0.05161984
Mg       0.00000000       0.00000000       5.52969697       0.00000000       0.00000000      -0.05161984
2
Properties=species:S:1:pos:R:3:forces:R:3 energy=-0.040437736511414704 pbc="F F F"
Mg       0.00000000       0.00000000       0.00000000       0.00000000       0.00000000       0.04381826
Mg       0.00000000       0.00000000       5.58848485       0.00000000       0.00000000      -0.04381826
2
Properties=species:S:1:pos:R:3:forces:R:3 energy=-0.03807863965237708 pbc="F F F"
Mg       0.00000000       0.00000000       0.00000000       0.00000000       0.00000000       0.03653961
Mg       0.00000000       0.00000000       5.64727273       0.00000000       0.00000000      -0.03653961
2
Properties=species:S:1:pos:R:3:forces:R:3 energy=-0.03612856999759456 pbc="F F F"
Mg       0.00000000       0.00000000       0.00000000       0.00000000       0.00000000       0.02994164
Mg       0.00000000       0.00000000       5.70606061       0.00000000       0.00000000      -0.02994164
2
Properties=species:S:1:pos:R:3:forces:R:3 energy=-0.03454128421502047 pbc="F F F"
Mg       0.00000000       0.00000000       0.00000000       0.00000000       0.00000000       0.02416002
Mg       0.00000000       0.00000000       5.76484848       0.00000000       0.00000000      -0.02416002
2
Properties=species:S:1:pos:R:3:forces:R:3 energy=-0.03326889604434706 pbc="F F F"
Mg       0.00000000       0.00000000       0.00000000       0.00000000       0.00000000       0.01931664
Mg       0.00000000       0.00000000       5.82363636       0.00000000       0.00000000      -0.01931664
2
Properties=species:S:1:pos:R:3:forces:R:3 energy=-0.03225089280952079 pbc="F F F"
Mg       0.00000000       0.00000000       0.00000000       0.00000000       0.00000000       0.01551814
Mg       0.00000000       0.00000000       5.88242424       0.00000000       0.00000000      -0.01551814
2
Properties=species:S:1:pos:R:3:forces:R:3 energy=-0.03142169364779162 pbc="F F F"
Mg       0.00000000       0.00000000       0.00000000       0.00000000       0.00000000       0.01287561
Mg       0.00000000       0.00000000       5.94121212       0.00000000       0.00000000      -0.01287561
2
Properties=species:S:1:pos:R:3:forces:R:3 energy=-0.03071185125206901 pbc="F F F"
Mg       0.00000000       0.00000000       0.00000000       0.00000000       0.00000000       0.01149992
Mg       0.00000000       0.00000000       6.00000000       0.00000000       0.00000000      -0.01149992
