2
Properties=species:S:1:pos:R:3:forces:R:3 energy=1138.5869236455087 pbc="F F F"
Mg       0.00000000       0.00000000       0.00000000       0.00000000       0.00000000  -15964.67382812
Mg       0.00000000       0.00000000       0.18000000       0.00000000       0.00000000   15964.67382812
2
Properties=species:S:1:pos:R:3:forces:R:3 energy=539.7023411259776 pbc="F F F"
Mg       0.00000000       0.00000000       0.00000000       0.00000000       0.00000000   -6229.19775391
Mg       0.00000000       0.00000000       0.23878788       0.00000000       0.00000000    6229.19775391
2
Properties=species:S:1:pos:R:3:forces:R:3 energy=289.0277805791025 pbc="F F F"
Mg       0.00000000       0.00000000       0.00000000       0.00000000       0.00000000   -2828.86401367
Mg       0.00000000       0.00000000       0.29757576       0.00000000       0.00000000    2828.86401367
2
Properties=species:S:1:pos:R:3:forces:R:3 energy=169.57369428172723 pbc="F F F"
Mg       0.00000000       0.00000000       0.00000000       0.00000000       0.00000000   -1423.14855957
Mg       0.00000000       0.00000000       0.35636364       0.00000000       0.00000000    1423.14855957
2
Properties=species:S:1:pos:R:3:forces:R:3 energy=107.44206435055087 pbc="F F F"
Mg       0.00000000       0.00000000       0.00000000       0.00000000       0.00000000    -767.56799316
Mg       0.00000000       0.00000000       0.41515152       0.00000000       0.00000000     767.56799316
2
Properties=species:S:1:pos:R:3:forces:R:3 energy=73.17970475041717 pbc="F F F"
Mg       0.00000000       0.00000000       0.00000000       0.00000000       0.00000000    -433.14724731
Mg       0.00000000       0.00000000       0.47393939       0.00000000       0.00000000     433.14724731
2
Properties=species:S:1:pos:R:3:forces:R:3 energy=53.59287466194217 pbc="F F F"
Mg       0.00000000       0.00000000       0.00000000       0.00000000       0.00000000    -250.65750122
Mg       0.00000000       0.00000000       0.53272727       0.00000000       0.00000000     250.65750122
2
Properties=species:S:1:pos:R:3:forces:R:3 energy=42.2006628239074 pbc="F F F"
Mg       0.00000000       0.00000000       0.00000000       0.00000000       0.00000000    -146.30088806
Mg       0.00000000       0.00000000       0.59151515       0.00000000       0.00000000     146.30088806
2
Properties=species:S:1:pos:R:3:forces:R:3 energy=35.551462517502806 pbc="F F F"
Mg       0.00000000       0.00000000       0.00000000       0.00000000       0.00000000     -85.33746338
Mg       0.00000000       0.00000000       0.65030303       0.00000000       0.00000000      85.33746338
2
Properties=species:S:1:pos:R:3:forces:R:3 energy=31.664658145890588 pbc="F F F"
Mg       0.00000000       0.00000000       0.00000000       0.00000000       0.00000000     -50.29446411
Mg       0.00000000       0.00000000       0.70909091       0.00000000       0.00000000      50.29446411
2
Properties=species:S:1:pos:R:3:forces:R:3 energy=29.294766342311476 pbc="F F F"
Mg       0.00000000       0.00000000       0.00000000       0.00000000       0.00000000     -33.08323669
Mg       0.00000000       0.00000000       0.76787879       0.00000000       0.00000000      33.08323669
2
Properties=species:S:1:pos:R:3:forces:R:3 energy=27.402345076065757 pbc="F F F"
Mg       0.00000000       0.00000000       0.00000000       0.00000000       0.00000000     -34.62443924
Mg       0.00000000       0.00000000       0.82666667       0.00000000       0.00000000      34.62443924
2
Properties=species:S:1:pos:R:3:forces:R:3 energy=25.06184395603009 pbc="F F F"
Mg       0.00000000       0.00000000       0.00000000       0.00000000       0.00000000     -44.51318741
Mg       0.00000000       0.00000000       0.88545455       0.00000000       0.00000000      44.51318741
2
Properties=species:S:1:pos:R:3:forces:R:3 energy=22.243912752127905 pbc="F F F"
Mg       0.00000000       0.00000000       0.00000000       0.00000000       0.00000000     -50.80311966
Mg       0.00000000       0.00000000       0.94424242       0.00000000       0.00000000      50.80311966
2
Properties=species:S:1:pos:R:3:forces:R:3 energy=19.127136611884108 pbc="F F F"
Mg       0.00000000       0.00000000       0.00000000       0.00000000       0.00000000     -55.23176956
Mg       0.00000000       0.00000000       1.00303030       0.00000000       0.00000000      55.23176956
2
Properties=species:S:1:pos:R:3:forces:R:3 energy=15.73842927321666 pbc="F F F"
Mg       0.00000000       0.00000000       0.00000000       0.00000000       0.00000000     -59.88216782
Mg       0.00000000       0.00000000       1.06181818       0.00000000       0.00000000      59.88216782
2
Properties=species:S:1:pos:R:3:forces:R:3 energy=12.184516536580539 pbc="F F F"
Mg       0.00000000       0.00000000       0.00000000       0.00000000       0.00000000     -59.65890121
Mg       0.00000000       0.00000000       1.12060606       0.00000000       0.00000000      59.65890121
2
Properties=species:S:1:pos:R:3:forces:R:3 energy=8.878426317397908 pbc="F F F"
Mg       0.00000000       0.00000000       0.00000000       0.00000000       0.00000000     -51.84947968
Mg       0.00000000       0.00000000       1.17939394       0.00000000       0.00000000      51.84947968
2
Properties=species:S:1:pos:R:3:forces:R:3 energy=6.1475241851381455 pbc="F F F"
Mg       0.00000000       0.00000000       0.00000000       0.00000000       0.00000000     -40.96754456
Mg       0.00000000       0.00000000       1.23818182       0.00000000       0.00000000      40.96754456
2
Properties=species:S:1:pos:R:3:forces:R:3 energy=4.04135562429216 pbc="F F F"
Mg       0.00000000       0.00000000       0.00000000       0.00000000       0.00000000     -30.97566605
Mg       0.00000000       0.00000000       1.29696970       0.00000000       0.00000000      30.97566605
2
Properties=species:S:1:pos:R:3:forces:R:3 energy=2.4852231426890223 pbc="F F F"
Mg       0.00000000       0.00000000       0.00000000       0.00000000       0.00000000     -21.91917801
Mg       0.00000000       0.00000000       1.35575758       0.00000000       0.00000000      21.91917801
2
Properties=species:S:1:pos:R:3:forces:R:3 energy=1.4853827523135472 pbc="F F F"
Mg       0.00000000       0.00000000       0.00000000       0.00000000       0.00000000     -11.99557304
Mg       0.00000000       0.00000000       1.41454545       0.00000000       0.00000000      11.99557304
2
Properties=species:S:1:pos:R:3:forces:R:3 energy=1.0446141408694711 pbc="F F F"
Mg       0.00000000       0.00000000       0.00000000       0.00000000       0.00000000      -3.60883594
Mg       0.00000000       0.00000000       1.47333333       0.00000000       0.00000000       3.60883594
2
Properties=species:S:1:pos:R:3:forces:R:3 energy=0.9768184915143858 pbc="F F F"
Mg       0.00000000       0.00000000       0.00000000       0.00000000       0.00000000       0.64874500
Mg       0.00000000       0.00000000       1.53212121       0.00000000       0.00000000      -0.64874500
2
Properties=species:S:1:pos:R:3:forces:R:3 energy=1.064191075229794 pbc="F F F"
Mg       0.00000000       0.00000000       0.00000000       0.00000000       0.00000000       2.00606608
Mg       0.00000000       0.00000000       1.59090909       0.00000000       0.00000000      -2.00606608
2
Properties=species:S:1:pos:R:3:forces:R:3 energy=1.1884075357069244 pbc="F F F"
Mg       0.00000000       0.00000000       0.00000000       0.00000000       0.00000000       2.08483768
Mg       0.00000000       0.00000000       1.64969697       0.00000000       0.00000000      -2.08483768
2
Properties=species:S:1:pos:R:3:forces:R:3 energy=1.296789448620298 pbc="F F F"
Mg       0.00000000       0.00000000       0.00000000       0.00000000       0.00000000       1.50959682
Mg       0.00000000       0.00000000       1.70848485       0.00000000       0.00000000      -1.50959682
2
Properties=species:S:1:pos:R:3:forces:R:3 energy=1.3559793326189478 pbc="F F F"
Mg       0.00000000       0.00000000       0.00000000       0.00000000       0.00000000       0.43168348
Mg       0.00000000       0.00000000       1.76727273       0.00000000       0.00000000      -0.43168348
2
Properties=species:S:1:pos:R:3:forces:R:3 energy=1.341486166191094 pbc="F F F"
Mg       0.00000000       0.00000000       0.00000000       0.00000000       0.00000000      -0.95008677
Mg       0.00000000       0.00000000       1.82606061       0.00000000       0.00000000       0.95008677
2
Properties=species:S:1:pos:R:3:forces:R:3 energy=1.2448585198950344 pbc="F F F"
Mg       0.00000000       0.00000000       0.00000000       0.00000000       0.00000000      -2.30268168
Mg       0.00000000       0.00000000       1.88484848       0.00000000       0.00000000       2.30268168
2
Properties=species:S:1:pos:R:3:forces:R:3 energy=1.0775766889778218 pbc="F F F"
Mg       0.00000000       0.00000000       0.00000000       0.00000000       0.00000000      -3.31320715
Mg       0.00000000       0.00000000       1.94363636       0.00000000       0.00000000       3.31320715
2
Properties=species:S:1:pos:R:3:forces:R:3 energy=0.8648996094445423 pbc="F F F"
Mg       0.00000000       0.00000000       0.00000000       0.00000000       0.00000000      -3.84061408
Mg       0.00000000       0.00000000       2.00242424       0.00000000       0.00000000       3.84061408
2
Properties=species:S:1:pos:R:3:forces:R:3 energy=0.6347542594166512 pbc="F F F"
Mg       0.00000000       0.00000000       0.00000000       0.00000000       0.00000000      -3.92454672
Mg       0.00000000       0.00000000       2.06121212       0.00000000       0.00000000       3.92454672
2
Properties=species:S:1:pos:R:3:forces:R:3 energy=0.409751038048895 pbc="F F F"
Mg       0.00000000       0.00000000       0.00000000       0.00000000       0.00000000      -3.68745732
Mg       0.00000000       0.00000000       2.12000000       0.00000000       0.00000000       3.68745732
2
Properties=species:S:1:pos:R:3:forces:R:3 energy=0.20513795718258515 pbc="F F F"
Mg       0.00000000       0.00000000       0.00000000       0.00000000       0.00000000      -3.24837279
Mg       0.00000000       0.00000000       2.17878788       0.00000000       0.00000000       3.24837279
2
Properties=species:S:1:pos:R:3:forces:R:3 energy=0.029940860255138493 pbc="F F F"
Mg       0.00000000       0.00000000       0.00000000       0.00000000       0.00000000      -2.70065165
Mg       0.00000000       0.00000000       2.23757576       0.00000000       0.00000000       2.70065165
2
Properties=species:S:1:pos:R:3:forces:R:3 energy=-0.11181963007453256 pbc="F F F"
Mg       0.00000000       0.00000000       0.00000000       0.00000000       0.00000000      -2.12334585
Mg       0.00000000       0.00000000       2.29636364       0.00000000       0.00000000       2.12334585
2
Properties=species:S:1:pos:R:3:forces:R:3 energy=-0.22048734714653923 pbc="F F F"
Mg       0.00000000       0.00000000       0.00000000       0.00000000       0.00000000      -1.58486545
Mg       0.00000000       0.00000000       2.35515152       0.00000000       0.00000000       1.58486545
2
Properties=species:S:1:pos:R:3:forces:R:3 energy=-0.29986446872027334 pbc="F F F"
Mg       0.00000000       0.00000000       0.00000000       0.00000000       0.00000000      -1.13229382
Mg       0.00000000       0.00000000       2.41393939       0.00000000       0.00000000       1.13229382
2
Properties=species:S:1:pos:R:3:forces:R:3 energy=-0.35567129093980526 pbc="F F F"
Mg       0.00000000       0.00000000       0.00000000       0.00000000       0.00000000      -0.78368872
Mg       0.00000000       0.00000000       2.47272727       0.00000000       0.00000000       0.78368872
2
Properties=species:S:1:pos:R:3:forces:R:3 energy=-0.3939369462655538 pbc="F F F"
Mg       0.00000000       0.00000000       0.00000000       0.00000000       0.00000000      -0.53318697
Mg       0.00000000       0.00000000       2.53151515       0.00000000       0.00000000       0.53318697
2
Properties=species:S:1:pos:R:3:forces:R:3 energy=-0.4199367656906334 pbc="F F F"
Mg       0.00000000       0.00000000       0.00000000       0.00000000       0.00000000      -0.36302680
Mg       0.00000000       0.00000000       2.59030303       0.00000000       0.00000000       0.36302680
2
Properties=species:S:1:pos:R:3:forces:R:3 energy=-0.4378055182880892 pbc="F F F"
Mg       0.00000000       0.00000000       0.00000000       0.00000000       0.00000000      -0.25345165
Mg       0.00000000       0.00000000       2.64909091       0.00000000       0.00000000       0.25345165
2
Properties=species:S:1:pos:R:3:forces:R:3 energy=-0.45058827648368 pbc="F F F"
Mg       0.00000000       0.00000000       0.00000000       0.00000000       0.00000000      -0.18747881
Mg       0.00000000       0.00000000       2.70787879       0.00000000       0.00000000       0.18747881
2
Properties=species:S:1:pos:R:3:forces:R:3 energy=-0.46043968284284703 pbc="F F F"
Mg       0.00000000       0.00000000       0.00000000       0.00000000       0.00000000      -0.15176475
Mg       0.00000000       0.00000000       2.76666667       0.00000000       0.00000000       0.15176475
2
Properties=species:S:1:pos:R:3:forces:R:3 energy=-0.4688125429185822 pbc="F F F"
Mg       0.00000000       0.00000000       0.00000000       0.00000000       0.00000000      -0.13549542
Mg       0.00000000       0.00000000       2.82545455       0.00000000       0.00000000       0.13549542
2
Properties=species:S:1:pos:R:3:forces:R:3 energy=-0.4765616761857483 pbc="F F F"
Mg       0.00000000       0.00000000       0.00000000       0.00000000       0.00000000      -0.12899342
Mg       0.00000000       0.00000000       2.88424242       0.00000000       0.00000000       0.12899342
2
Properties=species:S:1:pos:R:3:forces:R:3 energy=-0.4839961013202642 pbc="F F F"
Mg       0.00000000       0.00000000       0.00000000       0.00000000       0.00000000      -0.12342628
Mg       0.00000000       0.00000000       2.94303030       0.00000000       0.00000000       0.12342628
2
Properties=species:S:1:pos:R:3:forces:R:3 energy=-0.4909554744060425 pbc="F F F"
Mg       0.00000000       0.00000000       0.00000000       0.00000000       0.00000000      -0.11195751
Mg       0.00000000       0.00000000       3.00181818       0.00000000       0.00000000       0.11195751
2
Properties=species:S:1:pos:R:3:forces:R:3 energy=-0.49697828293019897 pbc="F F F"
Mg       0.00000000       0.00000000       0.00000000       0.00000000       0.00000000      -0.09138589
Mg       0.00000000       0.00000000       3.06060606       0.00000000       0.00000000       0.09138589
2
Properties=species:S:1:pos:R:3:forces:R:3 energy=-0.5015394018143478 pbc="F F F"
Mg       0.00000000       0.00000000       0.00000000       0.00000000       0.00000000      -0.06270073
Mg       0.00000000       0.00000000       3.11939394       0.00000000       0.00000000       0.06270073
2
Properties=species:S:1:pos:R:3:forces:R:3 energy=-0.5042630843097302 pbc="F F F"
Mg       0.00000000       0.00000000       0.00000000       0.00000000       0.00000000      -0.02952667
Mg       0.00000000       0.00000000       3.17818182       0.00000000       0.00000000       0.02952667
2
Properties=species:S:1:pos:R:3:forces:R:3 energy=-0.5049787687651239 pbc="F F F"
Mg       0.00000000       0.00000000       0.00000000       0.00000000       0.00000000       0.00545942
Mg       0.00000000       0.00000000       3.23696970       0.00000000       0.00000000      -0.00545942
2
Properties=species:S:1:pos:R:3:forces:R:3 energy=-0.5035549588323696 pbc="F F F"
Mg       0.00000000       0.00000000       0.00000000       0.00000000       0.00000000       0.04394139
Mg       0.00000000       0.00000000       3.29575758       0.00000000       0.00000000      -0.04394139
2
Properties=species:S:1:pos:R:3:forces:R:3 energy=-0.49965824880518295 pbc="F F F"
Mg       0.00000000       0.00000000       0.00000000       0.00000000       0.00000000       0.09009313
Mg       0.00000000       0.00000000       3.35454545       0.00000000       0.00000000      -0.09009313
2
Properties=species:S:1:pos:R:3:forces:R:3 energy=-0.4928183489568555 pbc="F F F"
Mg       0.00000000       0.00000000       0.00000000       0.00000000       0.00000000       0.14331862
Mg       0.00000000       0.00000000       3.41333333       0.00000000       0.00000000      -0.14331862
2
Properties=species:S:1:pos:R:3:forces:R:3 energy=-0.48280701918965824 pbc="F F F"
Mg       0.00000000       0.00000000       0.00000000       0.00000000       0.00000000       0.19658753
Mg       0.00000000       0.00000000       3.47212121       0.00000000       0.00000000      -0.19658753
2
Properties=species:S:1:pos:R:3:forces:R:3 energy=-0.46984606513808536 pbc="F F F"
Mg       0.00000000       0.00000000       0.00000000       0.00000000       0.00000000       0.24278225
Mg       0.00000000       0.00000000       3.53090909       0.00000000       0.00000000      -0.24278225
2
Properties=species:S:1:pos:R:3:forces:R:3 energy=-0.454464950354344 pbc="F F F"
Mg       0.00000000       0.00000000       0.00000000       0.00000000       0.00000000       0.27871880
Mg       0.00000000       0.00000000       3.58969697       0.00000000       0.00000000      -0.27871880
2
Properties=species:S:1:pos:R:3:forces:R:3 energy=-0.4372791369482927 pbc="F F F"
Mg       0.00000000       0.00000000       0.00000000       0.00000000       0.00000000       0.30430636
Mg       0.00000000       0.00000000       3.64848485       0.00000000       0.00000000      -0.30430636
2
Properties=species:S:1:pos:R:3:forces:R:3 energy=-0.4188644651795317 pbc="F F F"
Mg       0.00000000       0.00000000       0.00000000       0.00000000       0.00000000       0.32079035
Mg       0.00000000       0.00000000       3.70727273       0.00000000       0.00000000      -0.32079035
2
Properties=species:S:1:pos:R:3:forces:R:3 energy=-0.3997078766041596 pbc="F F F"
Mg       0.00000000       0.00000000       0.00000000       0.00000000       0.00000000       0.32981491
Mg       0.00000000       0.00000000       3.76606061       0.00000000       0.00000000      -0.32981491
2
Properties=species:S:1:pos:R:3:forces:R:3 energy=-0.3801992604791807 pbc="F F F"
Mg       0.00000000       0.00000000       0.00000000       0.00000000       0.00000000       0.33305734
Mg       0.00000000       0.00000000       3.82484848       0.00000000       0.00000000      -0.33305734
2
Properties=species:S:1:pos:R:3:forces:R:3 energy=-0.360631597916494 pbc="F F F"
Mg       0.00000000       0.00000000       0.00000000       0.00000000       0.00000000       0.33205041
Mg       0.00000000       0.00000000       3.88363636       0.00000000       0.00000000      -0.33205041
2
Properties=species:S:1:pos:R:3:forces:R:3 energy=-0.3412162959853197 pbc="F F F"
Mg       0.00000000       0.00000000       0.00000000       0.00000000       0.00000000       0.32806128
Mg       0.00000000       0.00000000       3.94242424       0.00000000       0.00000000      -0.32806128
2
Properties=species:S:1:pos:R:3:forces:R:3 energy=-0.32209943294678356 pbc="F F F"
Mg       0.00000000       0.00000000       0.00000000       0.00000000       0.00000000       0.32203448
Mg       0.00000000       0.00000000       4.00121212       0.00000000       0.00000000      -0.32203448
2
Properties=species:S:1:pos:R:3:forces:R:3 energy=-0.3033802863055889 pbc="F F F"
Mg       0.00000000       0.00000000       0.00000000       0.00000000       0.00000000       0.31460428
Mg       0.00000000       0.00000000       4.06000000       0.00000000       0.00000000      -0.31460428
2
Properties=species:S:1:pos:R:3:forces:R:3 energy=-0.28512945216041774 pbc="F F F"
Mg       0.00000000       0.00000000       0.00000000       0.00000000       0.00000000       0.30616355
Mg       0.00000000       0.00000000       4.11878788       0.00000000       0.00000000      -0.30616355
2
Properties=species:S:1:pos:R:3:forces:R:3 energy=-0.2673979806059059 pbc="F F F"
Mg       0.00000000       0.00000000       0.00000000       0.00000000       0.00000000       0.29694909
Mg       0.00000000       0.00000000       4.17757576       0.00000000       0.00000000      -0.29694909
2
Properties=species:S:1:pos:R:3:forces:R:3 energy=-0.25022733530013874 pbc="F F F"
Mg       0.00000000       0.00000000       0.00000000       0.00000000       0.00000000       0.28710991
Mg       0.00000000       0.00000000       4.23636364       0.00000000       0.00000000      -0.28710991
2
Properties=species:S:1:pos:R:3:forces:R:3 energy=-0.23365075216019712 pbc="F F F"
Mg       0.00000000       0.00000000       0.00000000       0.00000000       0.00000000       0.27674910
Mg       0.00000000       0.00000000       4.29515152       0.00000000       0.00000000      -0.27674910
2
Properties=species:S:1:pos:R:3:forces:R:3 energy=-0.21769753181659166 pbc="F F F"
Mg       0.00000000       0.00000000       0.00000000       0.00000000       0.00000000       0.26593092
Mg       0.00000000       0.00000000       4.35393939       0.00000000       0.00000000      -0.26593092
2
Properties=species:S:1:pos:R:3:forces:R:3 energy=-0.20239267894154286 pbc="F F F"
Mg       0.00000000       0.00000000       0.00000000       0.00000000       0.00000000       0.25466868
Mg       0.00000000       0.00000000       4.41272727       0.00000000       0.00000000      -0.25466868
2
Properties=species:S:1:pos:R:3:forces:R:3 energy=-0.1877637832936595 pbc="F F F"
Mg       0.00000000       0.00000000       0.00000000       0.00000000       0.00000000       0.24293028
Mg       0.00000000       0.00000000       4.47151515       0.00000000       0.00000000      -0.24293028
2
Properties=species:S:1:pos:R:3:forces:R:3 energy=-0.17384021271933003 pbc="F F F"
Mg       0.00000000       0.00000000       0.00000000       0.00000000       0.00000000       0.23065981
Mg       0.00000000       0.00000000       4.53030303       0.00000000       0.00000000      -0.23065981
2
Properties=species:S:1:pos:R:3:forces:R:3 energy=-0.16065493743003248 pbc="F F F"
Mg       0.00000000       0.00000000       0.00000000       0.00000000       0.00000000       0.21782443
Mg       0.00000000       0.00000000       4.58909091       0.00000000       0.00000000      -0.21782443
2
Properties=species:S:1:pos:R:3:forces:R:3 energy=-0.14823976515254816 pbc="F F F"
Mg       0.00000000       0.00000000       0.00000000       0.00000000       0.00000000       0.20447513
Mg       0.00000000       0.00000000       4.64787879       0.00000000       0.00000000      -0.20447513
2
Properties=species:S:1:pos:R:3:forces:R:3 energy=-0.13662031603981462 pbc="F F F"
Mg       0.00000000       0.00000000       0.00000000       0.00000000       0.00000000       0.19077963
Mg       0.00000000       0.00000000       4.70666667       0.00000000       0.00000000      -0.19077963
2
Properties=species:S:1:pos:R:3:forces:R:3 energy=-0.1258098910200811 pbc="F F F"
Mg       0.00000000       0.00000000       0.00000000       0.00000000       0.00000000       0.17702590
Mg       0.00000000       0.00000000       4.76545455       0.00000000       0.00000000      -0.17702590
2
Properties=species:S:1:pos:R:3:forces:R:3 energy=-0.11580026510916343 pbc="F F F"
Mg       0.00000000       0.00000000       0.00000000       0.00000000       0.00000000       0.16356793
Mg       0.00000000       0.00000000       4.82424242       0.00000000       0.00000000      -0.16356793
2
Properties=species:S:1:pos:R:3:forces:R:3 energy=-0.10656570051255282 pbc="F F F"
Mg       0.00000000       0.00000000       0.00000000       0.00000000       0.00000000       0.15076144
Mg       0.00000000       0.00000000       4.88303030       0.00000000       0.00000000      -0.15076144
2
Properties=species:S:1:pos:R:3:forces:R:3 energy=-0.09805674545947084 pbc="F F F"
Mg       0.00000000       0.00000000       0.00000000       0.00000000       0.00000000       0.13887088
Mg       0.00000000       0.00000000       4.94181818       0.00000000       0.00000000      -0.13887088
2
Properties=species:S:1:pos:R:3:forces:R:3 energy=-0.09021687832197856 pbc="F F F"
Mg       0.00000000       0.00000000       0.00000000       0.00000000       0.00000000       0.12802874
Mg       0.00000000       0.00000000       5.00060606       0.00000000       0.00000000      -0.12802874
2
Properties=species:S:1:pos:R:3:forces:R:3 energy=-0.08298353060089868 pbc="F F F"
Mg       0.00000000       0.00000000       0.00000000       0.00000000       0.00000000       0.11819772
Mg       0.00000000       0.00000000       5.05939394       0.00000000       0.00000000      -0.11819772
2
Properties=species:S:1:pos:R:3:forces:R:3 energy=-0.07630324718492591 pbc="F F F"
Mg       0.00000000       0.00000000       0.00000000       0.00000000       0.00000000       0.10920131
Mg       0.00000000       0.00000000       5.11818182       0.00000000       0.00000000      -0.10920131
2
Properties=species:S:1:pos:R:3:forces:R:3 energy=-0.07013340059464818 pbc="F F F"
Mg       0.00000000       0.00000000       0.00000000       0.00000000       0.00000000       0.10077037
Mg       0.00000000       0.00000000       5.17696970       0.00000000       0.00000000      -0.10077037
2
Properties=species:S:1:pos:R:3:forces:R:3 energy=-0.06444982937609185 pbc="F F F"
Mg       0.00000000       0.00000000       0.00000000       0.00000000       0.00000000       0.09262080
Mg       0.00000000       0.00000000       5.23575758       0.00000000       0.00000000      -0.09262080
2
Properties=species:S:1:pos:R:3:forces:R:3 energy=-0.05924272453077621 pbc="F F F"
Mg       0.00000000       0.00000000       0.00000000       0.00000000       0.00000000       0.08451726
Mg       0.00000000       0.00000000       5.29454545       0.00000000       0.00000000      -0.08451726
2
Properties=species:S:1:pos:R:3:forces:R:3 energy=-0.05451408624840607 pbc="F F F"
Mg       0.00000000       0.00000000       0.00000000       0.00000000       0.00000000       0.07633081
Mg       0.00000000       0.00000000       5.35333333       0.00000000       0.00000000      -0.07633081
2
Properties=species:S:1:pos:R:3:forces:R:3 energy=-0.05027017453084254 pbc="F F F"
Mg       0.00000000       0.00000000       0.00000000       0.00000000       0.00000000       0.06804714
Mg       0.00000000       0.00000000       5.41212121       0.00000000       0.00000000      -0.06804714
2
Properties=species:S:1:pos:R:3:forces:R:3 energy=-0.046513574235273934 pbc="F F F"
Mg       0.00000000       0.00000000       0.00000000       0.00000000       0.00000000       0.05975658
Mg       0.00000000       0.00000000       5.47090909       0.00000000       0.00000000      -0.05975658
2
Properties=species:S:1:pos:R:3:forces:R:3 energy=-0.04324082930241189 pbc="F F F"
Mg       0.00000000       0.00000000       0.00000000       0.00000000       0.00000000       0.05161952
Mg       0.00000000       0.00000000       5.52969697       0.00000000       0.00000000      -0.05161952
2
Properties=species:S:1:pos:R:3:forces:R:3 energy=-0.040437729339568185 pbc="F F F"
Mg       0.00000000       0.00000000       0.00000000       0.00000000       0.00000000       0.04381905
Mg       0.00000000       0.00000000       5.58848485       0.00000000       0.00000000      -0.04381905
2
Properties=species:S:1:pos:R:3:forces:R:3 energy=-0.03807942783000928 pbc="F F F"
Mg       0.00000000       0.00000000       0.00000000       0.00000000       0.00000000       0.03654167
Mg       0.00000000       0.00000000       5.64727273       0.00000000       0.00000000      -0.03654167
2
Properties=species:S:1:pos:R:3:forces:R:3 energy=-0.03612856049412812 pbc="F F F"
Mg       0.00000000       0.00000000       0.00000000       0.00000000       0.00000000       0.02994129
Mg       0.00000000       0.00000000       5.70606061       0.00000000       0.00000000      -0.02994129
2
Properties=species:S:1:pos:R:3:forces:R:3 energy=-0.03454128263110939 pbc="F F F"
Mg       0.00000000       0.00000000       0.00000000       0.00000000       0.00000000       0.02415931
Mg       0.00000000       0.00000000       5.76484848       0.00000000       0.00000000      -0.02415931
2
Properties=species:S:1:pos:R:3:forces:R:3 energy=-0.03326850675151087 pbc="F F F"
Mg       0.00000000       0.00000000       0.00000000       0.00000000       0.00000000       0.01931681
Mg       0.00000000       0.00000000       5.82363636       0.00000000       0.00000000      -0.01931681
2
Properties=species:S:1:pos:R:3:forces:R:3 energy=-0.032250888057787565 pbc="F F F"
Mg       0.00000000       0.00000000       0.00000000       0.00000000       0.00000000       0.01551918
Mg       0.00000000       0.00000000       5.88242424       0.00000000       0.00000000      -0.01551918
2
Properties=species:S:1:pos:R:3:forces:R:3 energy=-0.031421692855836084 pbc="F F F"
Mg       0.00000000       0.00000000       0.00000000       0.00000000       0.00000000       0.01287481
Mg       0.00000000       0.00000000       5.94121212       0.00000000       0.00000000      -0.01287481
2
Properties=species:S:1:pos:R:3:forces:R:3 energy=-0.030711849668157938 pbc="F F F"
Mg       0.00000000       0.00000000       0.00000000       0.00000000       0.00000000       0.01149992
Mg       0.00000000       0.00000000       6.00000000       0.00000000       0.00000000      -0.01149992
