2
Properties=species:S:1:pos:R:3:forces:R:3 energy=3559.1399874755225 pbc="F F F"
Mn       0.00000000       0.00000000       0.00000000       0.00000000       0.00000000  -52061.11328125
Mn       0.00000000       0.00000000       0.18000000       0.00000000       0.00000000   52061.11328125
2
Properties=species:S:1:pos:R:3:forces:R:3 energy=1659.6353488036475 pbc="F F F"
Mn       0.00000000       0.00000000       0.00000000       0.00000000       0.00000000  -19073.32421875
Mn       0.00000000       0.00000000       0.23878788       0.00000000       0.00000000   19073.32421875
2
Properties=species:S:1:pos:R:3:forces:R:3 energy=909.7698702880225 pbc="F F F"
Mn       0.00000000       0.00000000       0.00000000       0.00000000       0.00000000   -8215.07910156
Mn       0.00000000       0.00000000       0.29757576       0.00000000       0.00000000    8215.07910156
2
Properties=species:S:1:pos:R:3:forces:R:3 energy=570.5839572052528 pbc="F F F"
Mn       0.00000000       0.00000000       0.00000000       0.00000000       0.00000000   -3927.78881836
Mn       0.00000000       0.00000000       0.35636364       0.00000000       0.00000000    3927.78881836
2
Properties=species:S:1:pos:R:3:forces:R:3 energy=402.8598971498269 pbc="F F F"
Mn       0.00000000       0.00000000       0.00000000       0.00000000       0.00000000   -2018.23315430
Mn       0.00000000       0.00000000       0.41515152       0.00000000       0.00000000    2018.23315430
2
Properties=species:S:1:pos:R:3:forces:R:3 energy=314.27676727968566 pbc="F F F"
Mn       0.00000000       0.00000000       0.00000000       0.00000000       0.00000000   -1103.49316406
Mn       0.00000000       0.00000000       0.47393939       0.00000000       0.00000000    1103.49316406
2
Properties=species:S:1:pos:R:3:forces:R:3 energy=264.056399867052 pbc="F F F"
Mn       0.00000000       0.00000000       0.00000000       0.00000000       0.00000000    -660.26867676
Mn       0.00000000       0.00000000       0.53272727       0.00000000       0.00000000     660.26867676
2
Properties=species:S:1:pos:R:3:forces:R:3 energy=231.6622196072143 pbc="F F F"
Mn       0.00000000       0.00000000       0.00000000       0.00000000       0.00000000    -475.00662231
Mn       0.00000000       0.00000000       0.59151515       0.00000000       0.00000000     475.00662231
2
Properties=species:S:1:pos:R:3:forces:R:3 energy=204.98674358684852 pbc="F F F"
Mn       0.00000000       0.00000000       0.00000000       0.00000000       0.00000000    -455.18350220
Mn       0.00000000       0.00000000       0.65030303       0.00000000       0.00000000     455.18350220
2
Properties=species:S:1:pos:R:3:forces:R:3 energy=176.02875111866877 pbc="F F F"
Mn       0.00000000       0.00000000       0.00000000       0.00000000       0.00000000    -542.46343994
Mn       0.00000000       0.00000000       0.70909091       0.00000000       0.00000000     542.46343994
2
Properties=species:S:1:pos:R:3:forces:R:3 energy=140.52521121582262 pbc="F F F"
Mn       0.00000000       0.00000000       0.00000000       0.00000000       0.00000000    -665.74102783
Mn       0.00000000       0.00000000       0.76787879       0.00000000       0.00000000     665.74102783
2
Properties=species:S:1:pos:R:3:forces:R:3 energy=99.38576134215323 pbc="F F F"
Mn       0.00000000       0.00000000       0.00000000       0.00000000       0.00000000    -662.15521240
Mn       0.00000000       0.00000000       0.82666667       0.00000000       0.00000000     662.15521240
2
Properties=species:S:1:pos:R:3:forces:R:3 energy=65.1451076323902 pbc="F F F"
Mn       0.00000000       0.00000000       0.00000000       0.00000000       0.00000000    -559.42272949
Mn       0.00000000       0.00000000       0.88545455       0.00000000       0.00000000     559.42272949
2
Properties=species:S:1:pos:R:3:forces:R:3 energy=34.60893707523095 pbc="F F F"
Mn       0.00000000       0.00000000       0.00000000       0.00000000       0.00000000    -418.35375977
Mn       0.00000000       0.00000000       0.94424242       0.00000000       0.00000000     418.35375977
2
Properties=species:S:1:pos:R:3:forces:R:3 energy=19.870377897195965 pbc="F F F"
Mn       0.00000000       0.00000000       0.00000000       0.00000000       0.00000000    -146.70864868
Mn       0.00000000       0.00000000       1.00303030       0.00000000       0.00000000     146.70864868
2
Properties=species:S:1:pos:R:3:forces:R:3 energy=12.60202994461869 pbc="F F F"
Mn       0.00000000       0.00000000       0.00000000       0.00000000       0.00000000    -109.59143066
Mn       0.00000000       0.00000000       1.06181818       0.00000000       0.00000000     109.59143066
2
Properties=species:S:1:pos:R:3:forces:R:3 energy=6.746112042366212 pbc="F F F"
Mn       0.00000000       0.00000000       0.00000000       0.00000000       0.00000000     -89.92071533
Mn       0.00000000       0.00000000       1.12060606       0.00000000       0.00000000      89.92071533
2
Properties=species:S:1:pos:R:3:forces:R:3 energy=2.0266404465379906 pbc="F F F"
Mn       0.00000000       0.00000000       0.00000000       0.00000000       0.00000000     -70.56794739
Mn       0.00000000       0.00000000       1.17939394       0.00000000       0.00000000      70.56794739
2
Properties=species:S:1:pos:R:3:forces:R:3 energy=-1.600938533055577 pbc="F F F"
Mn       0.00000000       0.00000000       0.00000000       0.00000000       0.00000000     -53.71733475
Mn       0.00000000       0.00000000       1.23818182       0.00000000       0.00000000      53.71733475
2
Properties=species:S:1:pos:R:3:forces:R:3 energy=-4.390436640790324 pbc="F F F"
Mn       0.00000000       0.00000000       0.00000000       0.00000000       0.00000000     -41.82824326
Mn       0.00000000       0.00000000       1.29696970       0.00000000       0.00000000      41.82824326
2
Properties=species:S:1:pos:R:3:forces:R:3 energy=-6.561226527792377 pbc="F F F"
Mn       0.00000000       0.00000000       0.00000000       0.00000000       0.00000000     -32.15988541
Mn       0.00000000       0.00000000       1.35575758       0.00000000       0.00000000      32.15988541
2
Properties=species:S:1:pos:R:3:forces:R:3 energy=-8.18450177825632 pbc="F F F"
Mn       0.00000000       0.00000000       0.00000000       0.00000000       0.00000000     -23.27248192
Mn       0.00000000       0.00000000       1.41454545       0.00000000       0.00000000      23.27248192
2
Properties=species:S:1:pos:R:3:forces:R:3 energy=-9.332477336227033 pbc="F F F"
Mn       0.00000000       0.00000000       0.00000000       0.00000000       0.00000000     -16.06706619
Mn       0.00000000       0.00000000       1.47333333       0.00000000       0.00000000      16.06706619
2
Properties=species:S:1:pos:R:3:forces:R:3 energy=-10.09766805091277 pbc="F F F"
Mn       0.00000000       0.00000000       0.00000000       0.00000000       0.00000000     -10.12501907
Mn       0.00000000       0.00000000       1.53212121       0.00000000       0.00000000      10.12501907
2
Properties=species:S:1:pos:R:3:forces:R:3 energy=-10.54384791082301 pbc="F F F"
Mn       0.00000000       0.00000000       0.00000000       0.00000000       0.00000000      -5.26471710
Mn       0.00000000       0.00000000       1.59090909       0.00000000       0.00000000       5.26471710
2
Properties=species:S:1:pos:R:3:forces:R:3 energy=-10.744155029412202 pbc="F F F"
Mn       0.00000000       0.00000000       0.00000000       0.00000000       0.00000000      -1.79334676
Mn       0.00000000       0.00000000       1.64969697       0.00000000       0.00000000       1.79334676
2
Properties=species:S:1:pos:R:3:forces:R:3 energy=-10.78242695068166 pbc="F F F"
Mn       0.00000000       0.00000000       0.00000000       0.00000000       0.00000000       0.27212358
Mn       0.00000000       0.00000000       1.70848485       0.00000000       0.00000000      -0.27212358
2
Properties=species:S:1:pos:R:3:forces:R:3 energy=-10.734718459934552 pbc="F F F"
Mn       0.00000000       0.00000000       0.00000000       0.00000000       0.00000000       1.19163835
Mn       0.00000000       0.00000000       1.76727273       0.00000000       0.00000000      -1.19163835
2
Properties=species:S:1:pos:R:3:forces:R:3 energy=-10.65673441526255 pbc="F F F"
Mn       0.00000000       0.00000000       0.00000000       0.00000000       0.00000000       1.37551618
Mn       0.00000000       0.00000000       1.82606061       0.00000000       0.00000000      -1.37551618
2
Properties=species:S:1:pos:R:3:forces:R:3 energy=-10.579271497927802 pbc="F F F"
Mn       0.00000000       0.00000000       0.00000000       0.00000000       0.00000000       1.23358536
Mn       0.00000000       0.00000000       1.88484848       0.00000000       0.00000000      -1.23358536
2
Properties=species:S:1:pos:R:3:forces:R:3 energy=-10.512725993110074 pbc="F F F"
Mn       0.00000000       0.00000000       0.00000000       0.00000000       0.00000000       1.03217840
Mn       0.00000000       0.00000000       1.94363636       0.00000000       0.00000000      -1.03217840
2
Properties=species:S:1:pos:R:3:forces:R:3 energy=-10.457497511563595 pbc="F F F"
Mn       0.00000000       0.00000000       0.00000000       0.00000000       0.00000000       0.84722841
Mn       0.00000000       0.00000000       2.00242424       0.00000000       0.00000000      -0.84722841
2
Properties=species:S:1:pos:R:3:forces:R:3 energy=-10.413952829667531 pbc="F F F"
Mn       0.00000000       0.00000000       0.00000000       0.00000000       0.00000000       0.61802930
Mn       0.00000000       0.00000000       2.06121212       0.00000000       0.00000000      -0.61802930
2
Properties=species:S:1:pos:R:3:forces:R:3 energy=-10.387797717791022 pbc="F F F"
Mn       0.00000000       0.00000000       0.00000000       0.00000000       0.00000000       0.23867375
Mn       0.00000000       0.00000000       2.12000000       0.00000000       0.00000000      -0.23867375
2
Properties=species:S:1:pos:R:3:forces:R:3 energy=-10.390300089780508 pbc="F F F"
Mn       0.00000000       0.00000000       0.00000000       0.00000000       0.00000000      -0.36271438
Mn       0.00000000       0.00000000       2.17878788       0.00000000       0.00000000       0.36271438
2
Properties=species:S:1:pos:R:3:forces:R:3 energy=-10.434554262818736 pbc="F F F"
Mn       0.00000000       0.00000000       0.00000000       0.00000000       0.00000000      -1.16994369
Mn       0.00000000       0.00000000       2.23757576       0.00000000       0.00000000       1.16994369
2
Properties=species:S:1:pos:R:3:forces:R:3 energy=-10.529469273752868 pbc="F F F"
Mn       0.00000000       0.00000000       0.00000000       0.00000000       0.00000000      -2.05625772
Mn       0.00000000       0.00000000       2.29636364       0.00000000       0.00000000       2.05625772
2
Properties=species:S:1:pos:R:3:forces:R:3 energy=-10.673692751340818 pbc="F F F"
Mn       0.00000000       0.00000000       0.00000000       0.00000000       0.00000000      -2.80825138
Mn       0.00000000       0.00000000       2.35515152       0.00000000       0.00000000       2.80825138
2
Properties=species:S:1:pos:R:3:forces:R:3 energy=-10.852701636573249 pbc="F F F"
Mn       0.00000000       0.00000000       0.00000000       0.00000000       0.00000000      -3.20938134
Mn       0.00000000       0.00000000       2.41393939       0.00000000       0.00000000       3.20938134
2
Properties=species:S:1:pos:R:3:forces:R:3 energy=-11.041919110535785 pbc="F F F"
Mn       0.00000000       0.00000000       0.00000000       0.00000000       0.00000000      -3.15105486
Mn       0.00000000       0.00000000       2.47272727       0.00000000       0.00000000       3.15105486
2
Properties=species:S:1:pos:R:3:forces:R:3 energy=-11.215218594239557 pbc="F F F"
Mn       0.00000000       0.00000000       0.00000000       0.00000000       0.00000000      -2.69031239
Mn       0.00000000       0.00000000       2.53151515       0.00000000       0.00000000       2.69031239
2
Properties=species:S:1:pos:R:3:forces:R:3 energy=-11.35375691298929 pbc="F F F"
Mn       0.00000000       0.00000000       0.00000000       0.00000000       0.00000000      -2.00045633
Mn       0.00000000       0.00000000       2.59030303       0.00000000       0.00000000       2.00045633
2
Properties=species:S:1:pos:R:3:forces:R:3 energy=-11.449078679899042 pbc="F F F"
Mn       0.00000000       0.00000000       0.00000000       0.00000000       0.00000000      -1.23822176
Mn       0.00000000       0.00000000       2.64909091       0.00000000       0.00000000       1.23822176
2
Properties=species:S:1:pos:R:3:forces:R:3 energy=-11.499646311463849 pbc="F F F"
Mn       0.00000000       0.00000000       0.00000000       0.00000000       0.00000000      -0.49539351
Mn       0.00000000       0.00000000       2.70787879       0.00000000       0.00000000       0.49539351
2
Properties=species:S:1:pos:R:3:forces:R:3 energy=-11.510665300553667 pbc="F F F"
Mn       0.00000000       0.00000000       0.00000000       0.00000000       0.00000000       0.07898013
Mn       0.00000000       0.00000000       2.76666667       0.00000000       0.00000000      -0.07898013
2
Properties=species:S:1:pos:R:3:forces:R:3 energy=-11.49576507418014 pbc="F F F"
Mn       0.00000000       0.00000000       0.00000000       0.00000000       0.00000000       0.38342935
Mn       0.00000000       0.00000000       2.82545455       0.00000000       0.00000000      -0.38342935
2
Properties=species:S:1:pos:R:3:forces:R:3 energy=-11.470017314933726 pbc="F F F"
Mn       0.00000000       0.00000000       0.00000000       0.00000000       0.00000000       0.46301359
Mn       0.00000000       0.00000000       2.88424242       0.00000000       0.00000000      -0.46301359
2
Properties=species:S:1:pos:R:3:forces:R:3 energy=-11.443816584747465 pbc="F F F"
Mn       0.00000000       0.00000000       0.00000000       0.00000000       0.00000000       0.41498691
Mn       0.00000000       0.00000000       2.94303030       0.00000000       0.00000000      -0.41498691
2
Properties=species:S:1:pos:R:3:forces:R:3 energy=-11.422014570608217 pbc="F F F"
Mn       0.00000000       0.00000000       0.00000000       0.00000000       0.00000000       0.32562348
Mn       0.00000000       0.00000000       3.00181818       0.00000000       0.00000000      -0.32562348
2
Properties=species:S:1:pos:R:3:forces:R:3 energy=-11.405182652991291 pbc="F F F"
Mn       0.00000000       0.00000000       0.00000000       0.00000000       0.00000000       0.25300825
Mn       0.00000000       0.00000000       3.06060606       0.00000000       0.00000000      -0.25300825
2
Properties=species:S:1:pos:R:3:forces:R:3 energy=-11.391376877973979 pbc="F F F"
Mn       0.00000000       0.00000000       0.00000000       0.00000000       0.00000000       0.22499046
Mn       0.00000000       0.00000000       3.11939394       0.00000000       0.00000000      -0.22499046
2
Properties=species:S:1:pos:R:3:forces:R:3 energy=-11.377781666323745 pbc="F F F"
Mn       0.00000000       0.00000000       0.00000000       0.00000000       0.00000000       0.24482548
Mn       0.00000000       0.00000000       3.17818182       0.00000000       0.00000000      -0.24482548
2
Properties=species:S:1:pos:R:3:forces:R:3 energy=-11.361881490651577 pbc="F F F"
Mn       0.00000000       0.00000000       0.00000000       0.00000000       0.00000000       0.30070749
Mn       0.00000000       0.00000000       3.23696970       0.00000000       0.00000000      -0.30070749
2
Properties=species:S:1:pos:R:3:forces:R:3 energy=-11.342063969784446 pbc="F F F"
Mn       0.00000000       0.00000000       0.00000000       0.00000000       0.00000000       0.37512973
Mn       0.00000000       0.00000000       3.29575758       0.00000000       0.00000000      -0.37512973
2
Properties=species:S:1:pos:R:3:forces:R:3 energy=-11.317741361894802 pbc="F F F"
Mn       0.00000000       0.00000000       0.00000000       0.00000000       0.00000000       0.45146328
Mn       0.00000000       0.00000000       3.35454545       0.00000000       0.00000000      -0.45146328
2
Properties=species:S:1:pos:R:3:forces:R:3 energy=-11.289190464264966 pbc="F F F"
Mn       0.00000000       0.00000000       0.00000000       0.00000000       0.00000000       0.51734442
Mn       0.00000000       0.00000000       3.41333333       0.00000000       0.00000000      -0.51734442
2
Properties=species:S:1:pos:R:3:forces:R:3 energy=-11.257262331835559 pbc="F F F"
Mn       0.00000000       0.00000000       0.00000000       0.00000000       0.00000000       0.56562757
Mn       0.00000000       0.00000000       3.47212121       0.00000000       0.00000000      -0.56562757
2
Properties=species:S:1:pos:R:3:forces:R:3 energy=-11.223082104214667 pbc="F F F"
Mn       0.00000000       0.00000000       0.00000000       0.00000000       0.00000000       0.59384531
Mn       0.00000000       0.00000000       3.53090909       0.00000000       0.00000000      -0.59384531
2
Properties=species:S:1:pos:R:3:forces:R:3 energy=-11.187816505549613 pbc="F F F"
Mn       0.00000000       0.00000000       0.00000000       0.00000000       0.00000000       0.60290098
Mn       0.00000000       0.00000000       3.58969697       0.00000000       0.00000000      -0.60290098
2
Properties=species:S:1:pos:R:3:forces:R:3 energy=-11.152516519942967 pbc="F F F"
Mn       0.00000000       0.00000000       0.00000000       0.00000000       0.00000000       0.59558046
Mn       0.00000000       0.00000000       3.64848485       0.00000000       0.00000000      -0.59558046
2
Properties=species:S:1:pos:R:3:forces:R:3 energy=-11.118044180277742 pbc="F F F"
Mn       0.00000000       0.00000000       0.00000000       0.00000000       0.00000000       0.57533044
Mn       0.00000000       0.00000000       3.70727273       0.00000000       0.00000000      -0.57533044
2
Properties=species:S:1:pos:R:3:forces:R:3 energy=-11.085058370808596 pbc="F F F"
Mn       0.00000000       0.00000000       0.00000000       0.00000000       0.00000000       0.54554927
Mn       0.00000000       0.00000000       3.76606061       0.00000000       0.00000000      -0.54554927
2
Properties=species:S:1:pos:R:3:forces:R:3 energy=-11.054026195225893 pbc="F F F"
Mn       0.00000000       0.00000000       0.00000000       0.00000000       0.00000000       0.50935078
Mn       0.00000000       0.00000000       3.82484848       0.00000000       0.00000000      -0.50935078
2
Properties=species:S:1:pos:R:3:forces:R:3 energy=-11.025240358205311 pbc="F F F"
Mn       0.00000000       0.00000000       0.00000000       0.00000000       0.00000000       0.46958089
Mn       0.00000000       0.00000000       3.88363636       0.00000000       0.00000000      -0.46958089
2
Properties=species:S:1:pos:R:3:forces:R:3 energy=-10.998833457851296 pbc="F F F"
Mn       0.00000000       0.00000000       0.00000000       0.00000000       0.00000000       0.42887586
Mn       0.00000000       0.00000000       3.94242424       0.00000000       0.00000000      -0.42887586
2
Properties=species:S:1:pos:R:3:forces:R:3 energy=-10.974787471755075 pbc="F F F"
Mn       0.00000000       0.00000000       0.00000000       0.00000000       0.00000000       0.38959154
Mn       0.00000000       0.00000000       4.00121212       0.00000000       0.00000000      -0.38959154
2
Properties=species:S:1:pos:R:3:forces:R:3 energy=-10.952961451563693 pbc="F F F"
Mn       0.00000000       0.00000000       0.00000000       0.00000000       0.00000000       0.35362849
Mn       0.00000000       0.00000000       4.06000000       0.00000000       0.00000000      -0.35362849
2
Properties=species:S:1:pos:R:3:forces:R:3 energy=-10.933119141521326 pbc="F F F"
Mn       0.00000000       0.00000000       0.00000000       0.00000000       0.00000000       0.32224280
Mn       0.00000000       0.00000000       4.11878788       0.00000000       0.00000000      -0.32224280
2
Properties=species:S:1:pos:R:3:forces:R:3 energy=-10.914972701768017 pbc="F F F"
Mn       0.00000000       0.00000000       0.00000000       0.00000000       0.00000000       0.29595181
Mn       0.00000000       0.00000000       4.17757576       0.00000000       0.00000000      -0.29595181
2
Properties=species:S:1:pos:R:3:forces:R:3 energy=-10.898225522313602 pbc="F F F"
Mn       0.00000000       0.00000000       0.00000000       0.00000000       0.00000000       0.27460343
Mn       0.00000000       0.00000000       4.23636364       0.00000000       0.00000000      -0.27460343
2
Properties=species:S:1:pos:R:3:forces:R:3 energy=-10.882601653892998 pbc="F F F"
Mn       0.00000000       0.00000000       0.00000000       0.00000000       0.00000000       0.25757939
Mn       0.00000000       0.00000000       4.29515152       0.00000000       0.00000000      -0.25757939
2
Properties=species:S:1:pos:R:3:forces:R:3 energy=-10.867871506487575 pbc="F F F"
Mn       0.00000000       0.00000000       0.00000000       0.00000000       0.00000000       0.24405357
Mn       0.00000000       0.00000000       4.35393939       0.00000000       0.00000000      -0.24405357
2
Properties=species:S:1:pos:R:3:forces:R:3 energy=-10.853854285859953 pbc="F F F"
Mn       0.00000000       0.00000000       0.00000000       0.00000000       0.00000000       0.23320341
Mn       0.00000000       0.00000000       4.41272727       0.00000000       0.00000000      -0.23320341
2
Properties=species:S:1:pos:R:3:forces:R:3 energy=-10.840414140842865 pbc="F F F"
Mn       0.00000000       0.00000000       0.00000000       0.00000000       0.00000000       0.22433226
Mn       0.00000000       0.00000000       4.47151515       0.00000000       0.00000000      -0.22433226
2
Properties=species:S:1:pos:R:3:forces:R:3 energy=-10.827450493547461 pbc="F F F"
Mn       0.00000000       0.00000000       0.00000000       0.00000000       0.00000000       0.21688505
Mn       0.00000000       0.00000000       4.53030303       0.00000000       0.00000000      -0.21688505
2
Properties=species:S:1:pos:R:3:forces:R:3 energy=-10.8148948552225 pbc="F F F"
Mn       0.00000000       0.00000000       0.00000000       0.00000000       0.00000000       0.21040042
Mn       0.00000000       0.00000000       4.58909091       0.00000000       0.00000000      -0.21040042
2
Properties=species:S:1:pos:R:3:forces:R:3 energy=-10.802702141815198 pbc="F F F"
Mn       0.00000000       0.00000000       0.00000000       0.00000000       0.00000000       0.20445248
Mn       0.00000000       0.00000000       4.64787879       0.00000000       0.00000000      -0.20445248
2
Properties=species:S:1:pos:R:3:forces:R:3 energy=-10.79085344629515 pbc="F F F"
Mn       0.00000000       0.00000000       0.00000000       0.00000000       0.00000000       0.19862169
Mn       0.00000000       0.00000000       4.70666667       0.00000000       0.00000000      -0.19862169
2
Properties=species:S:1:pos:R:3:forces:R:3 energy=-10.779354825218606 pbc="F F F"
Mn       0.00000000       0.00000000       0.00000000       0.00000000       0.00000000       0.19250348
Mn       0.00000000       0.00000000       4.76545455       0.00000000       0.00000000      -0.19250348
2
Properties=species:S:1:pos:R:3:forces:R:3 energy=-10.768232587377677 pbc="F F F"
Mn       0.00000000       0.00000000       0.00000000       0.00000000       0.00000000       0.18574494
Mn       0.00000000       0.00000000       4.82424242       0.00000000       0.00000000      -0.18574494
2
Properties=species:S:1:pos:R:3:forces:R:3 energy=-10.757533135409238 pbc="F F F"
Mn       0.00000000       0.00000000       0.00000000       0.00000000       0.00000000       0.17810127
Mn       0.00000000       0.00000000       4.88303030       0.00000000       0.00000000      -0.17810127
2
Properties=species:S:1:pos:R:3:forces:R:3 energy=-10.747311477353614 pbc="F F F"
Mn       0.00000000       0.00000000       0.00000000       0.00000000       0.00000000       0.16946141
Mn       0.00000000       0.00000000       4.94181818       0.00000000       0.00000000      -0.16946141
2
Properties=species:S:1:pos:R:3:forces:R:3 energy=-10.737626474122113 pbc="F F F"
Mn       0.00000000       0.00000000       0.00000000       0.00000000       0.00000000       0.15985818
Mn       0.00000000       0.00000000       5.00060606       0.00000000       0.00000000      -0.15985818
2
Properties=species:S:1:pos:R:3:forces:R:3 energy=-10.728532354630664 pbc="F F F"
Mn       0.00000000       0.00000000       0.00000000       0.00000000       0.00000000       0.14943400
Mn       0.00000000       0.00000000       5.05939394       0.00000000       0.00000000      -0.14943400
2
Properties=species:S:1:pos:R:3:forces:R:3 energy=-10.720069046008119 pbc="F F F"
Mn       0.00000000       0.00000000       0.00000000       0.00000000       0.00000000       0.13839655
Mn       0.00000000       0.00000000       5.11818182       0.00000000       0.00000000      -0.13839655
2
Properties=species:S:1:pos:R:3:forces:R:3 energy=-10.712268047697618 pbc="F F F"
Mn       0.00000000       0.00000000       0.00000000       0.00000000       0.00000000       0.12696302
Mn       0.00000000       0.00000000       5.17696970       0.00000000       0.00000000      -0.12696302
2
Properties=species:S:1:pos:R:3:forces:R:3 energy=-10.705145825428463 pbc="F F F"
Mn       0.00000000       0.00000000       0.00000000       0.00000000       0.00000000       0.11534069
Mn       0.00000000       0.00000000       5.23575758       0.00000000       0.00000000      -0.11534069
2
Properties=species:S:1:pos:R:3:forces:R:3 energy=-10.698707641752494 pbc="F F F"
Mn       0.00000000       0.00000000       0.00000000       0.00000000       0.00000000       0.10370504
Mn       0.00000000       0.00000000       5.29454545       0.00000000       0.00000000      -0.10370504
2
Properties=species:S:1:pos:R:3:forces:R:3 energy=-10.692948652270392 pbc="F F F"
Mn       0.00000000       0.00000000       0.00000000       0.00000000       0.00000000       0.09222361
Mn       0.00000000       0.00000000       5.35333333       0.00000000       0.00000000      -0.09222361
2
Properties=species:S:1:pos:R:3:forces:R:3 energy=-10.687857728248517 pbc="F F F"
Mn       0.00000000       0.00000000       0.00000000       0.00000000       0.00000000       0.08105261
Mn       0.00000000       0.00000000       5.41212121       0.00000000       0.00000000      -0.08105261
2
Properties=species:S:1:pos:R:3:forces:R:3 energy=-10.683409946017695 pbc="F F F"
Mn       0.00000000       0.00000000       0.00000000       0.00000000       0.00000000       0.07034791
Mn       0.00000000       0.00000000       5.47090909       0.00000000       0.00000000      -0.07034791
2
Properties=species:S:1:pos:R:3:forces:R:3 energy=-10.679574281308108 pbc="F F F"
Mn       0.00000000       0.00000000       0.00000000       0.00000000       0.00000000       0.06025085
Mn       0.00000000       0.00000000       5.52969697       0.00000000       0.00000000      -0.06025085
2
Properties=species:S:1:pos:R:3:forces:R:3 energy=-10.6763117367467 pbc="F F F"
Mn       0.00000000       0.00000000       0.00000000       0.00000000       0.00000000       0.05088537
Mn       0.00000000       0.00000000       5.58848485       0.00000000       0.00000000      -0.05088537
2
Properties=species:S:1:pos:R:3:forces:R:3 energy=-10.673575490744827 pbc="F F F"
Mn       0.00000000       0.00000000       0.00000000       0.00000000       0.00000000       0.04235493
Mn       0.00000000       0.00000000       5.64727273       0.00000000       0.00000000      -0.04235493
2
Properties=species:S:1:pos:R:3:forces:R:3 energy=-10.671313718923422 pbc="F F F"
Mn       0.00000000       0.00000000       0.00000000       0.00000000       0.00000000       0.03475147
Mn       0.00000000       0.00000000       5.70606061       0.00000000       0.00000000      -0.03475147
2
Properties=species:S:1:pos:R:3:forces:R:3 energy=-10.669468722802053 pbc="F F F"
Mn       0.00000000       0.00000000       0.00000000       0.00000000       0.00000000       0.02814755
Mn       0.00000000       0.00000000       5.76484848       0.00000000       0.00000000      -0.02814755
2
Properties=species:S:1:pos:R:3:forces:R:3 energy=-10.667982773805985 pbc="F F F"
Mn       0.00000000       0.00000000       0.00000000       0.00000000       0.00000000       0.02262937
Mn       0.00000000       0.00000000       5.82363636       0.00000000       0.00000000      -0.02262937
2
Properties=species:S:1:pos:R:3:forces:R:3 energy=-10.666785618881475 pbc="F F F"
Mn       0.00000000       0.00000000       0.00000000       0.00000000       0.00000000       0.01829819
Mn       0.00000000       0.00000000       5.88242424       0.00000000       0.00000000      -0.01829819
2
Properties=species:S:1:pos:R:3:forces:R:3 energy=-10.665805107129621 pbc="F F F"
Mn       0.00000000       0.00000000       0.00000000       0.00000000       0.00000000       0.01527621
Mn       0.00000000       0.00000000       5.94121212       0.00000000       0.00000000      -0.01527621
2
Properties=species:S:1:pos:R:3:forces:R:3 energy=-10.664961459840896 pbc="F F F"
Mn       0.00000000       0.00000000       0.00000000       0.00000000       0.00000000       0.01369574
Mn       0.00000000       0.00000000       6.00000000       0.00000000       0.00000000      -0.01369574
