2
Properties=species:S:1:pos:R:3:forces:R:3 energy=3559.1392550536475 pbc="F F F"
Mn       0.00000000       0.00000000       0.00000000       0.00000000       0.00000000  -52061.11328125
Mn       0.00000000       0.00000000       0.18000000       0.00000000       0.00000000   52061.11328125
2
Properties=species:S:1:pos:R:3:forces:R:3 energy=1659.635715014585 pbc="F F F"
Mn       0.00000000       0.00000000       0.00000000       0.00000000       0.00000000  -19073.32421875
Mn       0.00000000       0.00000000       0.23878788       0.00000000       0.00000000   19073.32421875
2
Properties=species:S:1:pos:R:3:forces:R:3 energy=909.7701754638038 pbc="F F F"
Mn       0.00000000       0.00000000       0.00000000       0.00000000       0.00000000   -8215.08007812
Mn       0.00000000       0.00000000       0.29757576       0.00000000       0.00000000    8215.08007812
2
Properties=species:S:1:pos:R:3:forces:R:3 energy=570.5843844513465 pbc="F F F"
Mn       0.00000000       0.00000000       0.00000000       0.00000000       0.00000000   -3927.78881836
Mn       0.00000000       0.00000000       0.35636364       0.00000000       0.00000000    3927.78881836
2
Properties=species:S:1:pos:R:3:forces:R:3 energy=402.8603549134988 pbc="F F F"
Mn       0.00000000       0.00000000       0.00000000       0.00000000       0.00000000   -2018.23303223
Mn       0.00000000       0.00000000       0.41515152       0.00000000       0.00000000    2018.23303223
2
Properties=species:S:1:pos:R:3:forces:R:3 energy=314.2765536566388 pbc="F F F"
Mn       0.00000000       0.00000000       0.00000000       0.00000000       0.00000000   -1103.49316406
Mn       0.00000000       0.00000000       0.47393939       0.00000000       0.00000000    1103.49316406
2
Properties=species:S:1:pos:R:3:forces:R:3 energy=264.05649141978637 pbc="F F F"
Mn       0.00000000       0.00000000       0.00000000       0.00000000       0.00000000    -660.26892090
Mn       0.00000000       0.00000000       0.53272727       0.00000000       0.00000000     660.26892090
2
Properties=species:S:1:pos:R:3:forces:R:3 energy=231.66255530057367 pbc="F F F"
Mn       0.00000000       0.00000000       0.00000000       0.00000000       0.00000000    -475.00695801
Mn       0.00000000       0.00000000       0.59151515       0.00000000       0.00000000     475.00695801
2
Properties=species:S:1:pos:R:3:forces:R:3 energy=204.98674358684852 pbc="F F F"
Mn       0.00000000       0.00000000       0.00000000       0.00000000       0.00000000    -455.18273926
Mn       0.00000000       0.00000000       0.65030303       0.00000000       0.00000000     455.18273926
2
Properties=species:S:1:pos:R:3:forces:R:3 energy=176.0289037065594 pbc="F F F"
Mn       0.00000000       0.00000000       0.00000000       0.00000000       0.00000000    -542.46472168
Mn       0.00000000       0.00000000       0.70909091       0.00000000       0.00000000     542.46472168
2
Properties=species:S:1:pos:R:3:forces:R:3 energy=140.52540958008044 pbc="F F F"
Mn       0.00000000       0.00000000       0.00000000       0.00000000       0.00000000    -665.74200439
Mn       0.00000000       0.00000000       0.76787879       0.00000000       0.00000000     665.74200439
2
Properties=species:S:1:pos:R:3:forces:R:3 energy=99.3856316424462 pbc="F F F"
Mn       0.00000000       0.00000000       0.00000000       0.00000000       0.00000000    -662.15283203
Mn       0.00000000       0.00000000       0.82666667       0.00000000       0.00000000     662.15283203
2
Properties=species:S:1:pos:R:3:forces:R:3 energy=65.14511526178472 pbc="F F F"
Mn       0.00000000       0.00000000       0.00000000       0.00000000       0.00000000    -559.42211914
Mn       0.00000000       0.00000000       0.88545455       0.00000000       0.00000000     559.42211914
2
Properties=species:S:1:pos:R:3:forces:R:3 energy=34.608860781285635 pbc="F F F"
Mn       0.00000000       0.00000000       0.00000000       0.00000000       0.00000000    -418.35302734
Mn       0.00000000       0.00000000       0.94424242       0.00000000       0.00000000     418.35302734
2
Properties=species:S:1:pos:R:3:forces:R:3 energy=19.870423673563153 pbc="F F F"
Mn       0.00000000       0.00000000       0.00000000       0.00000000       0.00000000    -146.70909119
Mn       0.00000000       0.00000000       1.00303030       0.00000000       0.00000000     146.70909119
2
Properties=species:S:1:pos:R:3:forces:R:3 energy=12.60202994461869 pbc="F F F"
Mn       0.00000000       0.00000000       0.00000000       0.00000000       0.00000000    -109.59141541
Mn       0.00000000       0.00000000       1.06181818       0.00000000       0.00000000     109.59141541
2
Properties=species:S:1:pos:R:3:forces:R:3 energy=6.746110135017579 pbc="F F F"
Mn       0.00000000       0.00000000       0.00000000       0.00000000       0.00000000     -89.92072296
Mn       0.00000000       0.00000000       1.12060606       0.00000000       0.00000000      89.92072296
2
Properties=species:S:1:pos:R:3:forces:R:3 energy=2.0266356781664085 pbc="F F F"
Mn       0.00000000       0.00000000       0.00000000       0.00000000       0.00000000     -70.56792450
Mn       0.00000000       0.00000000       1.17939394       0.00000000       0.00000000      70.56792450
2
Properties=species:S:1:pos:R:3:forces:R:3 energy=-1.6009375793812606 pbc="F F F"
Mn       0.00000000       0.00000000       0.00000000       0.00000000       0.00000000     -53.71733475
Mn       0.00000000       0.00000000       1.23818182       0.00000000       0.00000000      53.71733475
2
Properties=species:S:1:pos:R:3:forces:R:3 energy=-4.390439978650432 pbc="F F F"
Mn       0.00000000       0.00000000       0.00000000       0.00000000       0.00000000     -41.82825851
Mn       0.00000000       0.00000000       1.29696970       0.00000000       0.00000000      41.82825851
2
Properties=species:S:1:pos:R:3:forces:R:3 energy=-6.561235587698383 pbc="F F F"
Mn       0.00000000       0.00000000       0.00000000       0.00000000       0.00000000     -32.15984726
Mn       0.00000000       0.00000000       1.35575758       0.00000000       0.00000000      32.15984726
2
Properties=species:S:1:pos:R:3:forces:R:3 energy=-8.184502731930637 pbc="F F F"
Mn       0.00000000       0.00000000       0.00000000       0.00000000       0.00000000     -23.27245522
Mn       0.00000000       0.00000000       1.41454545       0.00000000       0.00000000      23.27245522
2
Properties=species:S:1:pos:R:3:forces:R:3 energy=-9.332480197249982 pbc="F F F"
Mn       0.00000000       0.00000000       0.00000000       0.00000000       0.00000000     -16.06706238
Mn       0.00000000       0.00000000       1.47333333       0.00000000       0.00000000      16.06706238
2
Properties=species:S:1:pos:R:3:forces:R:3 energy=-10.097669958261402 pbc="F F F"
Mn       0.00000000       0.00000000       0.00000000       0.00000000       0.00000000     -10.12501240
Mn       0.00000000       0.00000000       1.53212121       0.00000000       0.00000000      10.12501240
2
Properties=species:S:1:pos:R:3:forces:R:3 energy=-10.54384695081305 pbc="F F F"
Mn       0.00000000       0.00000000       0.00000000       0.00000000       0.00000000      -5.26471090
Mn       0.00000000       0.00000000       1.59090909       0.00000000       0.00000000       5.26471090
2
Properties=species:S:1:pos:R:3:forces:R:3 energy=-10.744153122063569 pbc="F F F"
Mn       0.00000000       0.00000000       0.00000000       0.00000000       0.00000000      -1.79333711
Mn       0.00000000       0.00000000       1.64969697       0.00000000       0.00000000       1.79333711
2
Properties=species:S:1:pos:R:3:forces:R:3 energy=-10.782427904355977 pbc="F F F"
Mn       0.00000000       0.00000000       0.00000000       0.00000000       0.00000000       0.27211970
Mn       0.00000000       0.00000000       1.70848485       0.00000000       0.00000000      -0.27211970
2
Properties=species:S:1:pos:R:3:forces:R:3 energy=-10.734717506260235 pbc="F F F"
Mn       0.00000000       0.00000000       0.00000000       0.00000000       0.00000000       1.19163704
Mn       0.00000000       0.00000000       1.76727273       0.00000000       0.00000000      -1.19163704
2
Properties=species:S:1:pos:R:3:forces:R:3 energy=-10.656733461588233 pbc="F F F"
Mn       0.00000000       0.00000000       0.00000000       0.00000000       0.00000000       1.37551868
Mn       0.00000000       0.00000000       1.82606061       0.00000000       0.00000000      -1.37551868
2
Properties=species:S:1:pos:R:3:forces:R:3 energy=-10.579270544253486 pbc="F F F"
Mn       0.00000000       0.00000000       0.00000000       0.00000000       0.00000000       1.23358345
Mn       0.00000000       0.00000000       1.88484848       0.00000000       0.00000000      -1.23358345
2
Properties=species:S:1:pos:R:3:forces:R:3 energy=-10.512725993110074 pbc="F F F"
Mn       0.00000000       0.00000000       0.00000000       0.00000000       0.00000000       1.03218043
Mn       0.00000000       0.00000000       1.94363636       0.00000000       0.00000000      -1.03218043
2
Properties=species:S:1:pos:R:3:forces:R:3 energy=-10.457497517899238 pbc="F F F"
Mn       0.00000000       0.00000000       0.00000000       0.00000000       0.00000000       0.84722674
Mn       0.00000000       0.00000000       2.00242424       0.00000000       0.00000000      -0.84722674
2
Properties=species:S:1:pos:R:3:forces:R:3 energy=-10.413951875993215 pbc="F F F"
Mn       0.00000000       0.00000000       0.00000000       0.00000000       0.00000000       0.61803401
Mn       0.00000000       0.00000000       2.06121212       0.00000000       0.00000000      -0.61803401
2
Properties=species:S:1:pos:R:3:forces:R:3 energy=-10.387798671465339 pbc="F F F"
Mn       0.00000000       0.00000000       0.00000000       0.00000000       0.00000000       0.23867729
Mn       0.00000000       0.00000000       2.12000000       0.00000000       0.00000000      -0.23867729
2
Properties=species:S:1:pos:R:3:forces:R:3 energy=-10.390300089780508 pbc="F F F"
Mn       0.00000000       0.00000000       0.00000000       0.00000000       0.00000000      -0.36271572
Mn       0.00000000       0.00000000       2.17878788       0.00000000       0.00000000       0.36271572
2
Properties=species:S:1:pos:R:3:forces:R:3 energy=-10.43455330914442 pbc="F F F"
Mn       0.00000000       0.00000000       0.00000000       0.00000000       0.00000000      -1.16994298
Mn       0.00000000       0.00000000       2.23757576       0.00000000       0.00000000       1.16994298
2
Properties=species:S:1:pos:R:3:forces:R:3 energy=-10.52946831691073 pbc="F F F"
Mn       0.00000000       0.00000000       0.00000000       0.00000000       0.00000000      -2.05625677
Mn       0.00000000       0.00000000       2.29636364       0.00000000       0.00000000       2.05625677
2
Properties=species:S:1:pos:R:3:forces:R:3 energy=-10.673692764012106 pbc="F F F"
Mn       0.00000000       0.00000000       0.00000000       0.00000000       0.00000000      -2.80825400
Mn       0.00000000       0.00000000       2.35515152       0.00000000       0.00000000       2.80825400
2
Properties=species:S:1:pos:R:3:forces:R:3 energy=-10.852701636573249 pbc="F F F"
Mn       0.00000000       0.00000000       0.00000000       0.00000000       0.00000000      -3.20938087
Mn       0.00000000       0.00000000       2.41393939       0.00000000       0.00000000       3.20938087
2
Properties=species:S:1:pos:R:3:forces:R:3 energy=-11.041919107367962 pbc="F F F"
Mn       0.00000000       0.00000000       0.00000000       0.00000000       0.00000000      -3.15105438
Mn       0.00000000       0.00000000       2.47272727       0.00000000       0.00000000       3.15105438
2
Properties=species:S:1:pos:R:3:forces:R:3 energy=-11.215219573256451 pbc="F F F"
Mn       0.00000000       0.00000000       0.00000000       0.00000000       0.00000000      -2.69031096
Mn       0.00000000       0.00000000       2.53151515       0.00000000       0.00000000       2.69031096
2
Properties=species:S:1:pos:R:3:forces:R:3 energy=-11.353756906653645 pbc="F F F"
Mn       0.00000000       0.00000000       0.00000000       0.00000000       0.00000000      -2.00045419
Mn       0.00000000       0.00000000       2.59030303       0.00000000       0.00000000       2.00045419
2
Properties=species:S:1:pos:R:3:forces:R:3 energy=-11.449078679899042 pbc="F F F"
Mn       0.00000000       0.00000000       0.00000000       0.00000000       0.00000000      -1.23822117
Mn       0.00000000       0.00000000       2.64909091       0.00000000       0.00000000       1.23822117
2
Properties=species:S:1:pos:R:3:forces:R:3 energy=-11.499646362149003 pbc="F F F"
Mn       0.00000000       0.00000000       0.00000000       0.00000000       0.00000000      -0.49539524
Mn       0.00000000       0.00000000       2.70787879       0.00000000       0.00000000       0.49539524
2
Properties=species:S:1:pos:R:3:forces:R:3 energy=-11.510666254227983 pbc="F F F"
Mn       0.00000000       0.00000000       0.00000000       0.00000000       0.00000000       0.07898034
Mn       0.00000000       0.00000000       2.76666667       0.00000000       0.00000000      -0.07898034
2
Properties=species:S:1:pos:R:3:forces:R:3 energy=-11.495766027854456 pbc="F F F"
Mn       0.00000000       0.00000000       0.00000000       0.00000000       0.00000000       0.38342804
Mn       0.00000000       0.00000000       2.82545455       0.00000000       0.00000000      -0.38342804
2
Properties=species:S:1:pos:R:3:forces:R:3 energy=-11.47001636125941 pbc="F F F"
Mn       0.00000000       0.00000000       0.00000000       0.00000000       0.00000000       0.46301362
Mn       0.00000000       0.00000000       2.88424242       0.00000000       0.00000000      -0.46301362
2
Properties=species:S:1:pos:R:3:forces:R:3 energy=-11.443816584747465 pbc="F F F"
Mn       0.00000000       0.00000000       0.00000000       0.00000000       0.00000000       0.41498658
Mn       0.00000000       0.00000000       2.94303030       0.00000000       0.00000000      -0.41498658
2
Properties=species:S:1:pos:R:3:forces:R:3 energy=-11.422014570608217 pbc="F F F"
Mn       0.00000000       0.00000000       0.00000000       0.00000000       0.00000000       0.32562333
Mn       0.00000000       0.00000000       3.00181818       0.00000000       0.00000000      -0.32562333
2
Properties=species:S:1:pos:R:3:forces:R:3 energy=-11.405182652991291 pbc="F F F"
Mn       0.00000000       0.00000000       0.00000000       0.00000000       0.00000000       0.25300813
Mn       0.00000000       0.00000000       3.06060606       0.00000000       0.00000000      -0.25300813
2
Properties=species:S:1:pos:R:3:forces:R:3 energy=-11.391376877973979 pbc="F F F"
Mn       0.00000000       0.00000000       0.00000000       0.00000000       0.00000000       0.22499117
Mn       0.00000000       0.00000000       3.11939394       0.00000000       0.00000000      -0.22499117
2
Properties=species:S:1:pos:R:3:forces:R:3 energy=-11.377781666323745 pbc="F F F"
Mn       0.00000000       0.00000000       0.00000000       0.00000000       0.00000000       0.24482557
Mn       0.00000000       0.00000000       3.17818182       0.00000000       0.00000000      -0.24482557
2
Properties=species:S:1:pos:R:3:forces:R:3 energy=-11.361881490651577 pbc="F F F"
Mn       0.00000000       0.00000000       0.00000000       0.00000000       0.00000000       0.30070749
Mn       0.00000000       0.00000000       3.23696970       0.00000000       0.00000000      -0.30070749
2
Properties=species:S:1:pos:R:3:forces:R:3 energy=-11.34206301611013 pbc="F F F"
Mn       0.00000000       0.00000000       0.00000000       0.00000000       0.00000000       0.37512985
Mn       0.00000000       0.00000000       3.29575758       0.00000000       0.00000000      -0.37512985
2
Properties=species:S:1:pos:R:3:forces:R:3 energy=-11.317741355559157 pbc="F F F"
Mn       0.00000000       0.00000000       0.00000000       0.00000000       0.00000000       0.45146334
Mn       0.00000000       0.00000000       3.35454545       0.00000000       0.00000000      -0.45146334
2
Properties=species:S:1:pos:R:3:forces:R:3 energy=-11.289190464264966 pbc="F F F"
Mn       0.00000000       0.00000000       0.00000000       0.00000000       0.00000000       0.51734489
Mn       0.00000000       0.00000000       3.41333333       0.00000000       0.00000000      -0.51734489
2
Properties=species:S:1:pos:R:3:forces:R:3 energy=-11.257262331835559 pbc="F F F"
Mn       0.00000000       0.00000000       0.00000000       0.00000000       0.00000000       0.56562734
Mn       0.00000000       0.00000000       3.47212121       0.00000000       0.00000000      -0.56562734
2
Properties=species:S:1:pos:R:3:forces:R:3 energy=-11.223082104214667 pbc="F F F"
Mn       0.00000000       0.00000000       0.00000000       0.00000000       0.00000000       0.59384573
Mn       0.00000000       0.00000000       3.53090909       0.00000000       0.00000000      -0.59384573
2
Properties=species:S:1:pos:R:3:forces:R:3 energy=-11.187816505549613 pbc="F F F"
Mn       0.00000000       0.00000000       0.00000000       0.00000000       0.00000000       0.60290098
Mn       0.00000000       0.00000000       3.58969697       0.00000000       0.00000000      -0.60290098
2
Properties=species:S:1:pos:R:3:forces:R:3 energy=-11.152516507271677 pbc="F F F"
Mn       0.00000000       0.00000000       0.00000000       0.00000000       0.00000000       0.59558040
Mn       0.00000000       0.00000000       3.64848485       0.00000000       0.00000000      -0.59558040
2
Properties=species:S:1:pos:R:3:forces:R:3 energy=-11.118044180277742 pbc="F F F"
Mn       0.00000000       0.00000000       0.00000000       0.00000000       0.00000000       0.57533073
Mn       0.00000000       0.00000000       3.70727273       0.00000000       0.00000000      -0.57533073
2
Properties=species:S:1:pos:R:3:forces:R:3 energy=-11.085058370808596 pbc="F F F"
Mn       0.00000000       0.00000000       0.00000000       0.00000000       0.00000000       0.54554933
Mn       0.00000000       0.00000000       3.76606061       0.00000000       0.00000000      -0.54554933
2
Properties=species:S:1:pos:R:3:forces:R:3 energy=-11.054026195225893 pbc="F F F"
Mn       0.00000000       0.00000000       0.00000000       0.00000000       0.00000000       0.50935084
Mn       0.00000000       0.00000000       3.82484848       0.00000000       0.00000000      -0.50935084
2
Properties=species:S:1:pos:R:3:forces:R:3 energy=-11.025240358205311 pbc="F F F"
Mn       0.00000000       0.00000000       0.00000000       0.00000000       0.00000000       0.46958065
Mn       0.00000000       0.00000000       3.88363636       0.00000000       0.00000000      -0.46958065
2
Properties=species:S:1:pos:R:3:forces:R:3 energy=-10.998833457851296 pbc="F F F"
Mn       0.00000000       0.00000000       0.00000000       0.00000000       0.00000000       0.42887542
Mn       0.00000000       0.00000000       3.94242424       0.00000000       0.00000000      -0.42887542
2
Properties=species:S:1:pos:R:3:forces:R:3 energy=-10.974787471755075 pbc="F F F"
Mn       0.00000000       0.00000000       0.00000000       0.00000000       0.00000000       0.38959113
Mn       0.00000000       0.00000000       4.00121212       0.00000000       0.00000000      -0.38959113
2
Properties=species:S:1:pos:R:3:forces:R:3 energy=-10.952961451563693 pbc="F F F"
Mn       0.00000000       0.00000000       0.00000000       0.00000000       0.00000000       0.35362855
Mn       0.00000000       0.00000000       4.06000000       0.00000000       0.00000000      -0.35362855
2
Properties=species:S:1:pos:R:3:forces:R:3 energy=-10.933119141521326 pbc="F F F"
Mn       0.00000000       0.00000000       0.00000000       0.00000000       0.00000000       0.32224327
Mn       0.00000000       0.00000000       4.11878788       0.00000000       0.00000000      -0.32224327
2
Properties=species:S:1:pos:R:3:forces:R:3 energy=-10.914972689096727 pbc="F F F"
Mn       0.00000000       0.00000000       0.00000000       0.00000000       0.00000000       0.29595146
Mn       0.00000000       0.00000000       4.17757576       0.00000000       0.00000000      -0.29595146
2
Properties=species:S:1:pos:R:3:forces:R:3 energy=-10.89822550330667 pbc="F F F"
Mn       0.00000000       0.00000000       0.00000000       0.00000000       0.00000000       0.27460334
Mn       0.00000000       0.00000000       4.23636364       0.00000000       0.00000000      -0.27460334
2
Properties=species:S:1:pos:R:3:forces:R:3 energy=-10.882601653892998 pbc="F F F"
Mn       0.00000000       0.00000000       0.00000000       0.00000000       0.00000000       0.25757977
Mn       0.00000000       0.00000000       4.29515152       0.00000000       0.00000000      -0.25757977
2
Properties=species:S:1:pos:R:3:forces:R:3 energy=-10.867871506487575 pbc="F F F"
Mn       0.00000000       0.00000000       0.00000000       0.00000000       0.00000000       0.24405369
Mn       0.00000000       0.00000000       4.35393939       0.00000000       0.00000000      -0.24405369
2
Properties=species:S:1:pos:R:3:forces:R:3 energy=-10.853854260517375 pbc="F F F"
Mn       0.00000000       0.00000000       0.00000000       0.00000000       0.00000000       0.23320350
Mn       0.00000000       0.00000000       4.41272727       0.00000000       0.00000000      -0.23320350
2
Properties=species:S:1:pos:R:3:forces:R:3 energy=-10.840414140842865 pbc="F F F"
Mn       0.00000000       0.00000000       0.00000000       0.00000000       0.00000000       0.22433235
Mn       0.00000000       0.00000000       4.47151515       0.00000000       0.00000000      -0.22433235
2
Properties=species:S:1:pos:R:3:forces:R:3 energy=-10.827450493547461 pbc="F F F"
Mn       0.00000000       0.00000000       0.00000000       0.00000000       0.00000000       0.21688552
Mn       0.00000000       0.00000000       4.53030303       0.00000000       0.00000000      -0.21688552
2
Properties=species:S:1:pos:R:3:forces:R:3 energy=-10.814894842551212 pbc="F F F"
Mn       0.00000000       0.00000000       0.00000000       0.00000000       0.00000000       0.21039987
Mn       0.00000000       0.00000000       4.58909091       0.00000000       0.00000000      -0.21039987
2
Properties=species:S:1:pos:R:3:forces:R:3 energy=-10.802702141815198 pbc="F F F"
Mn       0.00000000       0.00000000       0.00000000       0.00000000       0.00000000       0.20445290
Mn       0.00000000       0.00000000       4.64787879       0.00000000       0.00000000      -0.20445290
2
Properties=species:S:1:pos:R:3:forces:R:3 energy=-10.79085344629515 pbc="F F F"
Mn       0.00000000       0.00000000       0.00000000       0.00000000       0.00000000       0.19862214
Mn       0.00000000       0.00000000       4.70666667       0.00000000       0.00000000      -0.19862214
2
Properties=species:S:1:pos:R:3:forces:R:3 energy=-10.779354825218606 pbc="F F F"
Mn       0.00000000       0.00000000       0.00000000       0.00000000       0.00000000       0.19250312
Mn       0.00000000       0.00000000       4.76545455       0.00000000       0.00000000      -0.19250312
2
Properties=species:S:1:pos:R:3:forces:R:3 energy=-10.76823163370336 pbc="F F F"
Mn       0.00000000       0.00000000       0.00000000       0.00000000       0.00000000       0.18574485
Mn       0.00000000       0.00000000       4.82424242       0.00000000       0.00000000      -0.18574485
2
Properties=species:S:1:pos:R:3:forces:R:3 energy=-10.757533135409238 pbc="F F F"
Mn       0.00000000       0.00000000       0.00000000       0.00000000       0.00000000       0.17810100
Mn       0.00000000       0.00000000       4.88303030       0.00000000       0.00000000      -0.17810100
2
Properties=species:S:1:pos:R:3:forces:R:3 energy=-10.747311477353614 pbc="F F F"
Mn       0.00000000       0.00000000       0.00000000       0.00000000       0.00000000       0.16946083
Mn       0.00000000       0.00000000       4.94181818       0.00000000       0.00000000      -0.16946083
2
Properties=species:S:1:pos:R:3:forces:R:3 energy=-10.73762742779643 pbc="F F F"
Mn       0.00000000       0.00000000       0.00000000       0.00000000       0.00000000       0.15985662
Mn       0.00000000       0.00000000       5.00060606       0.00000000       0.00000000      -0.15985662
2
Properties=species:S:1:pos:R:3:forces:R:3 energy=-10.728532354630664 pbc="F F F"
Mn       0.00000000       0.00000000       0.00000000       0.00000000       0.00000000       0.14943366
Mn       0.00000000       0.00000000       5.05939394       0.00000000       0.00000000      -0.14943366
2
Properties=species:S:1:pos:R:3:forces:R:3 energy=-10.720069046008119 pbc="F F F"
Mn       0.00000000       0.00000000       0.00000000       0.00000000       0.00000000       0.13839670
Mn       0.00000000       0.00000000       5.11818182       0.00000000       0.00000000      -0.13839670
2
Properties=species:S:1:pos:R:3:forces:R:3 energy=-10.712268038194152 pbc="F F F"
Mn       0.00000000       0.00000000       0.00000000       0.00000000       0.00000000       0.12696375
Mn       0.00000000       0.00000000       5.17696970       0.00000000       0.00000000      -0.12696375
2
Properties=species:S:1:pos:R:3:forces:R:3 energy=-10.705145825428463 pbc="F F F"
Mn       0.00000000       0.00000000       0.00000000       0.00000000       0.00000000       0.11533996
Mn       0.00000000       0.00000000       5.23575758       0.00000000       0.00000000      -0.11533996
2
Properties=species:S:1:pos:R:3:forces:R:3 energy=-10.698707641752494 pbc="F F F"
Mn       0.00000000       0.00000000       0.00000000       0.00000000       0.00000000       0.10370576
Mn       0.00000000       0.00000000       5.29454545       0.00000000       0.00000000      -0.10370576
2
Properties=species:S:1:pos:R:3:forces:R:3 energy=-10.692948642766925 pbc="F F F"
Mn       0.00000000       0.00000000       0.00000000       0.00000000       0.00000000       0.09222364
Mn       0.00000000       0.00000000       5.35333333       0.00000000       0.00000000      -0.09222364
2
Properties=species:S:1:pos:R:3:forces:R:3 energy=-10.687857728248517 pbc="F F F"
Mn       0.00000000       0.00000000       0.00000000       0.00000000       0.00000000       0.08105239
Mn       0.00000000       0.00000000       5.41212121       0.00000000       0.00000000      -0.08105239
2
Properties=species:S:1:pos:R:3:forces:R:3 energy=-10.683409946017695 pbc="F F F"
Mn       0.00000000       0.00000000       0.00000000       0.00000000       0.00000000       0.07034755
Mn       0.00000000       0.00000000       5.47090909       0.00000000       0.00000000      -0.07034755
2
Properties=species:S:1:pos:R:3:forces:R:3 energy=-10.67957427022073 pbc="F F F"
Mn       0.00000000       0.00000000       0.00000000       0.00000000       0.00000000       0.06025027
Mn       0.00000000       0.00000000       5.52969697       0.00000000       0.00000000      -0.06025027
2
Properties=species:S:1:pos:R:3:forces:R:3 energy=-10.6763117367467 pbc="F F F"
Mn       0.00000000       0.00000000       0.00000000       0.00000000       0.00000000       0.05088479
Mn       0.00000000       0.00000000       5.58848485       0.00000000       0.00000000      -0.05088479
2
Properties=species:S:1:pos:R:3:forces:R:3 energy=-10.673576444419144 pbc="F F F"
Mn       0.00000000       0.00000000       0.00000000       0.00000000       0.00000000       0.04235833
Mn       0.00000000       0.00000000       5.64727273       0.00000000       0.00000000      -0.04235833
2
Properties=species:S:1:pos:R:3:forces:R:3 energy=-10.671313707836044 pbc="F F F"
Mn       0.00000000       0.00000000       0.00000000       0.00000000       0.00000000       0.03475155
Mn       0.00000000       0.00000000       5.70606061       0.00000000       0.00000000      -0.03475155
2
Properties=species:S:1:pos:R:3:forces:R:3 energy=-10.669468722802053 pbc="F F F"
Mn       0.00000000       0.00000000       0.00000000       0.00000000       0.00000000       0.02814685
Mn       0.00000000       0.00000000       5.76484848       0.00000000       0.00000000      -0.02814685
2
Properties=species:S:1:pos:R:3:forces:R:3 energy=-10.667981820131669 pbc="F F F"
Mn       0.00000000       0.00000000       0.00000000       0.00000000       0.00000000       0.02262806
Mn       0.00000000       0.00000000       5.82363636       0.00000000       0.00000000      -0.02262806
2
Properties=species:S:1:pos:R:3:forces:R:3 energy=-10.666785614129742 pbc="F F F"
Mn       0.00000000       0.00000000       0.00000000       0.00000000       0.00000000       0.01829830
Mn       0.00000000       0.00000000       5.88242424       0.00000000       0.00000000      -0.01829830
2
Properties=species:S:1:pos:R:3:forces:R:3 energy=-10.665805107129621 pbc="F F F"
Mn       0.00000000       0.00000000       0.00000000       0.00000000       0.00000000       0.01527432
Mn       0.00000000       0.00000000       5.94121212       0.00000000       0.00000000      -0.01527432
2
Properties=species:S:1:pos:R:3:forces:R:3 energy=-10.664961459840896 pbc="F F F"
Mn       0.00000000       0.00000000       0.00000000       0.00000000       0.00000000       0.01369574
Mn       0.00000000       0.00000000       6.00000000       0.00000000       0.00000000      -0.01369574
