2
Properties=species:S:1:pos:R:3:forces:R:3 energy=554.0511915380703 pbc="F F F"
N        0.00000000       0.00000000       0.00000000       0.00000000       0.00000000   -6469.23779297
N        0.00000000       0.00000000       0.18000000       0.00000000       0.00000000    6469.23779297
2
Properties=species:S:1:pos:R:3:forces:R:3 energy=308.4286939794766 pbc="F F F"
N        0.00000000       0.00000000       0.00000000       0.00000000       0.00000000   -2572.30224609
N        0.00000000       0.00000000       0.23878788       0.00000000       0.00000000    2572.30224609
2
Properties=species:S:1:pos:R:3:forces:R:3 energy=206.46864149241 pbc="F F F"
N        0.00000000       0.00000000       0.00000000       0.00000000       0.00000000   -1110.18066406
N        0.00000000       0.00000000       0.29757576       0.00000000       0.00000000    1110.18066406
2
Properties=species:S:1:pos:R:3:forces:R:3 energy=161.305662374353 pbc="F F F"
N        0.00000000       0.00000000       0.00000000       0.00000000       0.00000000    -526.55212402
N        0.00000000       0.00000000       0.35636364       0.00000000       0.00000000     526.55212402
2
Properties=species:S:1:pos:R:3:forces:R:3 energy=135.10540604253586 pbc="F F F"
N        0.00000000       0.00000000       0.00000000       0.00000000       0.00000000    -422.06826782
N        0.00000000       0.00000000       0.41515152       0.00000000       0.00000000     422.06826782
2
Properties=species:S:1:pos:R:3:forces:R:3 energy=109.0508940502883 pbc="F F F"
N        0.00000000       0.00000000       0.00000000       0.00000000       0.00000000    -471.11691284
N        0.00000000       0.00000000       0.47393939       0.00000000       0.00000000     471.11691284
2
Properties=species:S:1:pos:R:3:forces:R:3 energy=80.27685388989286 pbc="F F F"
N        0.00000000       0.00000000       0.00000000       0.00000000       0.00000000    -484.76016235
N        0.00000000       0.00000000       0.53272727       0.00000000       0.00000000     484.76016235
2
Properties=species:S:1:pos:R:3:forces:R:3 energy=54.092428642011 pbc="F F F"
N        0.00000000       0.00000000       0.00000000       0.00000000       0.00000000    -401.93597412
N        0.00000000       0.00000000       0.59151515       0.00000000       0.00000000     401.93597412
2
Properties=species:S:1:pos:R:3:forces:R:3 energy=33.689982070207 pbc="F F F"
N        0.00000000       0.00000000       0.00000000       0.00000000       0.00000000    -284.30737305
N        0.00000000       0.00000000       0.65030303       0.00000000       0.00000000     284.30737305
2
Properties=species:S:1:pos:R:3:forces:R:3 energy=18.994778565471552 pbc="F F F"
N        0.00000000       0.00000000       0.00000000       0.00000000       0.00000000    -232.65934753
N        0.00000000       0.00000000       0.70909091       0.00000000       0.00000000     232.65934753
2
Properties=species:S:1:pos:R:3:forces:R:3 energy=6.201312892468071 pbc="F F F"
N        0.00000000       0.00000000       0.00000000       0.00000000       0.00000000    -193.62806702
N        0.00000000       0.00000000       0.76787879       0.00000000       0.00000000     193.62806702
2
Properties=species:S:1:pos:R:3:forces:R:3 energy=-3.1742997047679262 pbc="F F F"
N        0.00000000       0.00000000       0.00000000       0.00000000       0.00000000    -126.41493225
N        0.00000000       0.00000000       0.82666667       0.00000000       0.00000000     126.41493225
2
Properties=species:S:1:pos:R:3:forces:R:3 energy=-9.040759145071243 pbc="F F F"
N        0.00000000       0.00000000       0.00000000       0.00000000       0.00000000     -76.87326813
N        0.00000000       0.00000000       0.88545455       0.00000000       0.00000000      76.87326813
2
Properties=species:S:1:pos:R:3:forces:R:3 energy=-12.595554128492676 pbc="F F F"
N        0.00000000       0.00000000       0.00000000       0.00000000       0.00000000     -46.30905151
N        0.00000000       0.00000000       0.94424242       0.00000000       0.00000000      46.30905151
2
Properties=species:S:1:pos:R:3:forces:R:3 energy=-14.658910740592592 pbc="F F F"
N        0.00000000       0.00000000       0.00000000       0.00000000       0.00000000     -24.94570732
N        0.00000000       0.00000000       1.00303030       0.00000000       0.00000000      24.94570732
2
Properties=species:S:1:pos:R:3:forces:R:3 energy=-15.642623518717603 pbc="F F F"
N        0.00000000       0.00000000       0.00000000       0.00000000       0.00000000      -9.45874214
N        0.00000000       0.00000000       1.06181818       0.00000000       0.00000000       9.45874214
2
Properties=species:S:1:pos:R:3:forces:R:3 energy=-15.86979907259954 pbc="F F F"
N        0.00000000       0.00000000       0.00000000       0.00000000       0.00000000       1.01988828
N        0.00000000       0.00000000       1.12060606       0.00000000       0.00000000      -1.01988828
2
Properties=species:S:1:pos:R:3:forces:R:3 energy=-15.593931492287405 pbc="F F F"
N        0.00000000       0.00000000       0.00000000       0.00000000       0.00000000       7.83273363
N        0.00000000       0.00000000       1.17939394       0.00000000       0.00000000      -7.83273363
2
Properties=species:S:1:pos:R:3:forces:R:3 energy=-15.005084067442194 pbc="F F F"
N        0.00000000       0.00000000       0.00000000       0.00000000       0.00000000      11.78057194
N        0.00000000       0.00000000       1.23818182       0.00000000       0.00000000     -11.78057194
2
Properties=species:S:1:pos:R:3:forces:R:3 energy=-14.250004198689817 pbc="F F F"
N        0.00000000       0.00000000       0.00000000       0.00000000       0.00000000      13.62974834
N        0.00000000       0.00000000       1.29696970       0.00000000       0.00000000     -13.62974834
2
Properties=species:S:1:pos:R:3:forces:R:3 energy=-13.427133834578239 pbc="F F F"
N        0.00000000       0.00000000       0.00000000       0.00000000       0.00000000      14.21812344
N        0.00000000       0.00000000       1.35575758       0.00000000       0.00000000     -14.21812344
2
Properties=species:S:1:pos:R:3:forces:R:3 energy=-12.590216347037686 pbc="F F F"
N        0.00000000       0.00000000       0.00000000       0.00000000       0.00000000      14.18344021
N        0.00000000       0.00000000       1.41454545       0.00000000       0.00000000     -14.18344021
2
Properties=species:S:1:pos:R:3:forces:R:3 energy=-11.766539513890947 pbc="F F F"
N        0.00000000       0.00000000       0.00000000       0.00000000       0.00000000      13.77902508
N        0.00000000       0.00000000       1.47333333       0.00000000       0.00000000     -13.77902508
2
Properties=species:S:1:pos:R:3:forces:R:3 energy=-10.97851072416446 pbc="F F F"
N        0.00000000       0.00000000       0.00000000       0.00000000       0.00000000      12.94923878
N        0.00000000       0.00000000       1.53212121       0.00000000       0.00000000     -12.94923878
2
Properties=species:S:1:pos:R:3:forces:R:3 energy=-10.253353441029592 pbc="F F F"
N        0.00000000       0.00000000       0.00000000       0.00000000       0.00000000      11.65433979
N        0.00000000       0.00000000       1.59090909       0.00000000       0.00000000     -11.65433979
2
Properties=species:S:1:pos:R:3:forces:R:3 energy=-9.613000386152896 pbc="F F F"
N        0.00000000       0.00000000       0.00000000       0.00000000       0.00000000      10.12257576
N        0.00000000       0.00000000       1.64969697       0.00000000       0.00000000     -10.12257576
2
Properties=species:S:1:pos:R:3:forces:R:3 energy=-9.060430790407057 pbc="F F F"
N        0.00000000       0.00000000       0.00000000       0.00000000       0.00000000       8.72551537
N        0.00000000       0.00000000       1.70848485       0.00000000       0.00000000      -8.72551537
2
Properties=species:S:1:pos:R:3:forces:R:3 energy=-8.579765768727949 pbc="F F F"
N        0.00000000       0.00000000       0.00000000       0.00000000       0.00000000       7.69217253
N        0.00000000       0.00000000       1.76727273       0.00000000       0.00000000      -7.69217253
2
Properties=species:S:1:pos:R:3:forces:R:3 energy=-8.149459911496603 pbc="F F F"
N        0.00000000       0.00000000       0.00000000       0.00000000       0.00000000       6.98771572
N        0.00000000       0.00000000       1.82606061       0.00000000       0.00000000      -6.98771572
2
Properties=species:S:1:pos:R:3:forces:R:3 energy=-7.755663707757853 pbc="F F F"
N        0.00000000       0.00000000       0.00000000       0.00000000       0.00000000       6.41186094
N        0.00000000       0.00000000       1.88484848       0.00000000       0.00000000      -6.41186094
2
Properties=species:S:1:pos:R:3:forces:R:3 energy=-7.397130902980938 pbc="F F F"
N        0.00000000       0.00000000       0.00000000       0.00000000       0.00000000       5.76067495
N        0.00000000       0.00000000       1.94363636       0.00000000       0.00000000      -5.76067495
2
Properties=species:S:1:pos:R:3:forces:R:3 energy=-7.081828181007658 pbc="F F F"
N        0.00000000       0.00000000       0.00000000       0.00000000       0.00000000       4.93693542
N        0.00000000       0.00000000       2.00242424       0.00000000       0.00000000      -4.93693542
2
Properties=species:S:1:pos:R:3:forces:R:3 energy=-6.819305224131492 pbc="F F F"
N        0.00000000       0.00000000       0.00000000       0.00000000       0.00000000       3.98145032
N        0.00000000       0.00000000       2.06121212       0.00000000       0.00000000      -3.98145032
2
Properties=species:S:1:pos:R:3:forces:R:3 energy=-6.613922816414739 pbc="F F F"
N        0.00000000       0.00000000       0.00000000       0.00000000       0.00000000       3.01464605
N        0.00000000       0.00000000       2.12000000       0.00000000       0.00000000      -3.01464605
2
Properties=species:S:1:pos:R:3:forces:R:3 energy=-6.462826496455816 pbc="F F F"
N        0.00000000       0.00000000       0.00000000       0.00000000       0.00000000       2.14942646
N        0.00000000       0.00000000       2.17878788       0.00000000       0.00000000      -2.14942646
2
Properties=species:S:1:pos:R:3:forces:R:3 energy=-6.358006367112589 pbc="F F F"
N        0.00000000       0.00000000       0.00000000       0.00000000       0.00000000       1.44550800
N        0.00000000       0.00000000       2.23757576       0.00000000       0.00000000      -1.44550800
2
Properties=species:S:1:pos:R:3:forces:R:3 energy=-6.289515451458423 pbc="F F F"
N        0.00000000       0.00000000       0.00000000       0.00000000       0.00000000       0.91181958
N        0.00000000       0.00000000       2.29636364       0.00000000       0.00000000      -0.91181958
2
Properties=species:S:1:pos:R:3:forces:R:3 energy=-6.247846158016562 pbc="F F F"
N        0.00000000       0.00000000       0.00000000       0.00000000       0.00000000       0.52846634
N        0.00000000       0.00000000       2.35515152       0.00000000       0.00000000      -0.52846634
2
Properties=species:S:1:pos:R:3:forces:R:3 energy=-6.225020543220115 pbc="F F F"
N        0.00000000       0.00000000       0.00000000       0.00000000       0.00000000       0.26558873
N        0.00000000       0.00000000       2.41393939       0.00000000       0.00000000      -0.26558873
2
Properties=species:S:1:pos:R:3:forces:R:3 energy=-6.214839148972798 pbc="F F F"
N        0.00000000       0.00000000       0.00000000       0.00000000       0.00000000       0.09370380
N        0.00000000       0.00000000       2.47272727       0.00000000       0.00000000      -0.09370380
2
Properties=species:S:1:pos:R:3:forces:R:3 energy=-6.212718333781836 pbc="F F F"
N        0.00000000       0.00000000       0.00000000       0.00000000       0.00000000      -0.01243579
N        0.00000000       0.00000000       2.53151515       0.00000000       0.00000000       0.01243579
2
Properties=species:S:1:pos:R:3:forces:R:3 energy=-6.215410106336934 pbc="F F F"
N        0.00000000       0.00000000       0.00000000       0.00000000       0.00000000      -0.07294089
N        0.00000000       0.00000000       2.59030303       0.00000000       0.00000000       0.07294089
2
Properties=species:S:1:pos:R:3:forces:R:3 energy=-6.220701837685901 pbc="F F F"
N        0.00000000       0.00000000       0.00000000       0.00000000       0.00000000      -0.10305724
N        0.00000000       0.00000000       2.64909091       0.00000000       0.00000000       0.10305724
2
Properties=species:S:1:pos:R:3:forces:R:3 energy=-6.227149797962227 pbc="F F F"
N        0.00000000       0.00000000       0.00000000       0.00000000       0.00000000      -0.11380856
N        0.00000000       0.00000000       2.70787879       0.00000000       0.00000000       0.11380856
2
Properties=species:S:1:pos:R:3:forces:R:3 energy=-6.233853189425076 pbc="F F F"
N        0.00000000       0.00000000       0.00000000       0.00000000       0.00000000      -0.11274300
N        0.00000000       0.00000000       2.76666667       0.00000000       0.00000000       0.11274300
2
Properties=species:S:1:pos:R:3:forces:R:3 energy=-6.240271088507867 pbc="F F F"
N        0.00000000       0.00000000       0.00000000       0.00000000       0.00000000      -0.10473292
N        0.00000000       0.00000000       2.82545455       0.00000000       0.00000000       0.10473292
2
Properties=species:S:1:pos:R:3:forces:R:3 energy=-6.2460903777645616 pbc="F F F"
N        0.00000000       0.00000000       0.00000000       0.00000000       0.00000000      -0.09275359
N        0.00000000       0.00000000       2.88424242       0.00000000       0.00000000       0.09275359
2
Properties=species:S:1:pos:R:3:forces:R:3 energy=-6.251133735305066 pbc="F F F"
N        0.00000000       0.00000000       0.00000000       0.00000000       0.00000000      -0.07856303
N        0.00000000       0.00000000       2.94303030       0.00000000       0.00000000       0.07856303
2
Properties=species:S:1:pos:R:3:forces:R:3 energy=-6.255305735565286 pbc="F F F"
N        0.00000000       0.00000000       0.00000000       0.00000000       0.00000000      -0.06324720
N        0.00000000       0.00000000       3.00181818       0.00000000       0.00000000       0.06324720
2
Properties=species:S:1:pos:R:3:forces:R:3 energy=-6.258562767384471 pbc="F F F"
N        0.00000000       0.00000000       0.00000000       0.00000000       0.00000000      -0.04757602
N        0.00000000       0.00000000       3.06060606       0.00000000       0.00000000       0.04757602
2
Properties=species:S:1:pos:R:3:forces:R:3 energy=-6.260904898471174 pbc="F F F"
N        0.00000000       0.00000000       0.00000000       0.00000000       0.00000000      -0.03218839
N        0.00000000       0.00000000       3.11939394       0.00000000       0.00000000       0.03218839
2
Properties=species:S:1:pos:R:3:forces:R:3 energy=-6.262364353699807 pbc="F F F"
N        0.00000000       0.00000000       0.00000000       0.00000000       0.00000000      -0.01764148
N        0.00000000       0.00000000       3.17818182       0.00000000       0.00000000       0.01764148
2
Properties=species:S:1:pos:R:3:forces:R:3 energy=-6.263004482240774 pbc="F F F"
N        0.00000000       0.00000000       0.00000000       0.00000000       0.00000000      -0.00438062
N        0.00000000       0.00000000       3.23696970       0.00000000       0.00000000       0.00438062
2
Properties=species:S:1:pos:R:3:forces:R:3 energy=-6.262910624794555 pbc="F F F"
N        0.00000000       0.00000000       0.00000000       0.00000000       0.00000000       0.00729667
N        0.00000000       0.00000000       3.29575758       0.00000000       0.00000000      -0.00729667
2
Properties=species:S:1:pos:R:3:forces:R:3 energy=-6.2621804802299685 pbc="F F F"
N        0.00000000       0.00000000       0.00000000       0.00000000       0.00000000       0.01725013
N        0.00000000       0.00000000       3.35454545       0.00000000       0.00000000      -0.01725013
2
Properties=species:S:1:pos:R:3:forces:R:3 energy=-6.260916385114747 pbc="F F F"
N        0.00000000       0.00000000       0.00000000       0.00000000       0.00000000       0.02546029
N        0.00000000       0.00000000       3.41333333       0.00000000       0.00000000      -0.02546029
2
Properties=species:S:1:pos:R:3:forces:R:3 energy=-6.2592205013904305 pbc="F F F"
N        0.00000000       0.00000000       0.00000000       0.00000000       0.00000000       0.03196043
N        0.00000000       0.00000000       3.47212121       0.00000000       0.00000000      -0.03196043
2
Properties=species:S:1:pos:R:3:forces:R:3 energy=-6.257191868630283 pbc="F F F"
N        0.00000000       0.00000000       0.00000000       0.00000000       0.00000000       0.03676606
N        0.00000000       0.00000000       3.53090909       0.00000000       0.00000000      -0.03676606
2
Properties=species:S:1:pos:R:3:forces:R:3 energy=-6.25493161163014 pbc="F F F"
N        0.00000000       0.00000000       0.00000000       0.00000000       0.00000000       0.03983268
N        0.00000000       0.00000000       3.58969697       0.00000000       0.00000000      -0.03983268
2
Properties=species:S:1:pos:R:3:forces:R:3 energy=-6.252544361020449 pbc="F F F"
N        0.00000000       0.00000000       0.00000000       0.00000000       0.00000000       0.04105900
N        0.00000000       0.00000000       3.64848485       0.00000000       0.00000000      -0.04105900
2
Properties=species:S:1:pos:R:3:forces:R:3 energy=-6.250142042620949 pbc="F F F"
N        0.00000000       0.00000000       0.00000000       0.00000000       0.00000000       0.04033465
N        0.00000000       0.00000000       3.70727273       0.00000000       0.00000000      -0.04033465
2
Properties=species:S:1:pos:R:3:forces:R:3 energy=-6.247841027901079 pbc="F F F"
N        0.00000000       0.00000000       0.00000000       0.00000000       0.00000000       0.03762276
N        0.00000000       0.00000000       3.76606061       0.00000000       0.00000000      -0.03762276
2
Properties=species:S:1:pos:R:3:forces:R:3 energy=-6.2457554820184304 pbc="F F F"
N        0.00000000       0.00000000       0.00000000       0.00000000       0.00000000       0.03305014
N        0.00000000       0.00000000       3.82484848       0.00000000       0.00000000      -0.03305014
2
Properties=species:S:1:pos:R:3:forces:R:3 energy=-6.243984974764146 pbc="F F F"
N        0.00000000       0.00000000       0.00000000       0.00000000       0.00000000       0.02696668
N        0.00000000       0.00000000       3.88363636       0.00000000       0.00000000      -0.02696668
2
Properties=species:S:1:pos:R:3:forces:R:3 energy=-6.242602613090961 pbc="F F F"
N        0.00000000       0.00000000       0.00000000       0.00000000       0.00000000       0.01996726
N        0.00000000       0.00000000       3.94242424       0.00000000       0.00000000      -0.01996726
2
Properties=species:S:1:pos:R:3:forces:R:3 energy=-6.241639802123029 pbc="F F F"
N        0.00000000       0.00000000       0.00000000       0.00000000       0.00000000       0.01283648
N        0.00000000       0.00000000       4.00121212       0.00000000       0.00000000      -0.01283648
2
Properties=species:S:1:pos:R:3:forces:R:3 energy=-6.241079130810404 pbc="F F F"
N        0.00000000       0.00000000       0.00000000       0.00000000       0.00000000       0.00642688
N        0.00000000       0.00000000       4.06000000       0.00000000       0.00000000      -0.00642688
2
Properties=species:S:1:pos:R:3:forces:R:3 energy=-6.240855363617225 pbc="F F F"
N        0.00000000       0.00000000       0.00000000       0.00000000       0.00000000       0.00149093
N        0.00000000       0.00000000       4.11878788       0.00000000       0.00000000      -0.00149093
2
Properties=species:S:1:pos:R:3:forces:R:3 energy=-6.240865484988301 pbc="F F F"
N        0.00000000       0.00000000       0.00000000       0.00000000       0.00000000      -0.00148535
N        0.00000000       0.00000000       4.17757576       0.00000000       0.00000000       0.00148535
2
Properties=species:S:1:pos:R:3:forces:R:3 energy=-6.240989223343792 pbc="F F F"
N        0.00000000       0.00000000       0.00000000       0.00000000       0.00000000      -0.00239889
N        0.00000000       0.00000000       4.23636364       0.00000000       0.00000000       0.00239889
2
Properties=species:S:1:pos:R:3:forces:R:3 energy=-6.241112928179141 pbc="F F F"
N        0.00000000       0.00000000       0.00000000       0.00000000       0.00000000      -0.00155005
N        0.00000000       0.00000000       4.29515152       0.00000000       0.00000000       0.00155005
2
Properties=species:S:1:pos:R:3:forces:R:3 energy=-6.241149142761303 pbc="F F F"
N        0.00000000       0.00000000       0.00000000       0.00000000       0.00000000       0.00043969
N        0.00000000       0.00000000       4.35393939       0.00000000       0.00000000      -0.00043969
2
Properties=species:S:1:pos:R:3:forces:R:3 energy=-6.24105425304327 pbc="F F F"
N        0.00000000       0.00000000       0.00000000       0.00000000       0.00000000       0.00277874
N        0.00000000       0.00000000       4.41272727       0.00000000       0.00000000      -0.00277874
2
Properties=species:S:1:pos:R:3:forces:R:3 energy=-6.240830893430641 pbc="F F F"
N        0.00000000       0.00000000       0.00000000       0.00000000       0.00000000       0.00468777
N        0.00000000       0.00000000       4.47151515       0.00000000       0.00000000      -0.00468777
2
Properties=species:S:1:pos:R:3:forces:R:3 energy=-6.240523670690341 pbc="F F F"
N        0.00000000       0.00000000       0.00000000       0.00000000       0.00000000       0.00555620
N        0.00000000       0.00000000       4.53030303       0.00000000       0.00000000      -0.00555620
2
Properties=species:S:1:pos:R:3:forces:R:3 energy=-6.240204859033858 pbc="F F F"
N        0.00000000       0.00000000       0.00000000       0.00000000       0.00000000       0.00504448
N        0.00000000       0.00000000       4.58909091       0.00000000       0.00000000      -0.00504448
2
Properties=species:S:1:pos:R:3:forces:R:3 energy=-6.239958198939229 pbc="F F F"
N        0.00000000       0.00000000       0.00000000       0.00000000       0.00000000       0.00311616
N        0.00000000       0.00000000       4.64787879       0.00000000       0.00000000      -0.00311616
2
Properties=species:S:1:pos:R:3:forces:R:3 energy=-6.239861737942964 pbc="F F F"
N        0.00000000       0.00000000       0.00000000       0.00000000       0.00000000      -0.00000015
N        0.00000000       0.00000000       4.70666667       0.00000000       0.00000000       0.00000015
2
Properties=species:S:1:pos:R:3:forces:R:3 energy=-6.239973522357468 pbc="F F F"
N        0.00000000       0.00000000       0.00000000       0.00000000       0.00000000      -0.00388987
N        0.00000000       0.00000000       4.76545455       0.00000000       0.00000000       0.00388987
2
Properties=species:S:1:pos:R:3:forces:R:3 energy=-6.240324453029208 pbc="F F F"
N        0.00000000       0.00000000       0.00000000       0.00000000       0.00000000      -0.00805629
N        0.00000000       0.00000000       4.82424242       0.00000000       0.00000000       0.00805629
2
Properties=species:S:1:pos:R:3:forces:R:3 energy=-6.240916377000132 pbc="F F F"
N        0.00000000       0.00000000       0.00000000       0.00000000       0.00000000      -0.01200285
N        0.00000000       0.00000000       4.88303030       0.00000000       0.00000000       0.01200285
2
Properties=species:S:1:pos:R:3:forces:R:3 energy=-6.241723037519191 pbc="F F F"
N        0.00000000       0.00000000       0.00000000       0.00000000       0.00000000      -0.01529732
N        0.00000000       0.00000000       4.94181818       0.00000000       0.00000000       0.01529732
2
Properties=species:S:1:pos:R:3:forces:R:3 energy=-6.242695800839973 pbc="F F F"
N        0.00000000       0.00000000       0.00000000       0.00000000       0.00000000      -0.01760749
N        0.00000000       0.00000000       5.00060606       0.00000000       0.00000000       0.01760749
2
Properties=species:S:1:pos:R:3:forces:R:3 energy=-6.243769853420854 pbc="F F F"
N        0.00000000       0.00000000       0.00000000       0.00000000       0.00000000      -0.01872709
N        0.00000000       0.00000000       5.05939394       0.00000000       0.00000000       0.01872709
2
Properties=species:S:1:pos:R:3:forces:R:3 energy=-6.24487278152904 pbc="F F F"
N        0.00000000       0.00000000       0.00000000       0.00000000       0.00000000      -0.01859416
N        0.00000000       0.00000000       5.11818182       0.00000000       0.00000000       0.01859416
2
Properties=species:S:1:pos:R:3:forces:R:3 energy=-6.245933154903375 pbc="F F F"
N        0.00000000       0.00000000       0.00000000       0.00000000       0.00000000      -0.01730204
N        0.00000000       0.00000000       5.17696970       0.00000000       0.00000000       0.01730204
2
Properties=species:S:1:pos:R:3:forces:R:3 energy=-6.246889107645323 pbc="F F F"
N        0.00000000       0.00000000       0.00000000       0.00000000       0.00000000      -0.01508611
N        0.00000000       0.00000000       5.23575758       0.00000000       0.00000000       0.01508611
2
Properties=species:S:1:pos:R:3:forces:R:3 energy=-6.2476954895883985 pbc="F F F"
N        0.00000000       0.00000000       0.00000000       0.00000000       0.00000000      -0.01228314
N        0.00000000       0.00000000       5.29454545       0.00000000       0.00000000       0.01228314
2
Properties=species:S:1:pos:R:3:forces:R:3 energy=-6.248329110417968 pbc="F F F"
N        0.00000000       0.00000000       0.00000000       0.00000000       0.00000000      -0.00926791
N        0.00000000       0.00000000       5.35333333       0.00000000       0.00000000       0.00926791
2
Properties=species:S:1:pos:R:3:forces:R:3 energy=-6.248787782730124 pbc="F F F"
N        0.00000000       0.00000000       0.00000000       0.00000000       0.00000000      -0.00638682
N        0.00000000       0.00000000       5.41212121       0.00000000       0.00000000       0.00638682
2
Properties=species:S:1:pos:R:3:forces:R:3 energy=-6.249087937994379 pbc="F F F"
N        0.00000000       0.00000000       0.00000000       0.00000000       0.00000000      -0.00390003
N        0.00000000       0.00000000       5.47090909       0.00000000       0.00000000       0.00390003
2
Properties=species:S:1:pos:R:3:forces:R:3 energy=-6.249256994832766 pbc="F F F"
N        0.00000000       0.00000000       0.00000000       0.00000000       0.00000000      -0.00195440
N        0.00000000       0.00000000       5.52969697       0.00000000       0.00000000       0.00195440
2
Properties=species:S:1:pos:R:3:forces:R:3 energy=-6.249329065406535 pbc="F F F"
N        0.00000000       0.00000000       0.00000000       0.00000000       0.00000000      -0.00058755
N        0.00000000       0.00000000       5.58848485       0.00000000       0.00000000       0.00058755
2
Properties=species:S:1:pos:R:3:forces:R:3 energy=-6.249336373634228 pbc="F F F"
N        0.00000000       0.00000000       0.00000000       0.00000000       0.00000000       0.00025020
N        0.00000000       0.00000000       5.64727273       0.00000000       0.00000000      -0.00025020
2
Properties=species:S:1:pos:R:3:forces:R:3 energy=-6.249307819680989 pbc="F F F"
N        0.00000000       0.00000000       0.00000000       0.00000000       0.00000000       0.00066155
N        0.00000000       0.00000000       5.70606061       0.00000000       0.00000000      -0.00066155
2
Properties=species:S:1:pos:R:3:forces:R:3 energy=-6.249264689166596 pbc="F F F"
N        0.00000000       0.00000000       0.00000000       0.00000000       0.00000000       0.00077249
N        0.00000000       0.00000000       5.76484848       0.00000000       0.00000000      -0.00077249
2
Properties=species:S:1:pos:R:3:forces:R:3 energy=-6.249220653462448 pbc="F F F"
N        0.00000000       0.00000000       0.00000000       0.00000000       0.00000000       0.00070520
N        0.00000000       0.00000000       5.82363636       0.00000000       0.00000000      -0.00070520
2
Properties=species:S:1:pos:R:3:forces:R:3 energy=-6.249183195896775 pbc="F F F"
N        0.00000000       0.00000000       0.00000000       0.00000000       0.00000000       0.00056431
N        0.00000000       0.00000000       5.88242424       0.00000000       0.00000000      -0.00056431
2
Properties=species:S:1:pos:R:3:forces:R:3 energy=-6.249154089680741 pbc="F F F"
N        0.00000000       0.00000000       0.00000000       0.00000000       0.00000000       0.00042995
N        0.00000000       0.00000000       5.94121212       0.00000000       0.00000000      -0.00042995
2
Properties=species:S:1:pos:R:3:forces:R:3 energy=-6.249131304415623 pbc="F F F"
N        0.00000000       0.00000000       0.00000000       0.00000000       0.00000000       0.00035882
N        0.00000000       0.00000000       6.00000000       0.00000000       0.00000000      -0.00035882
