2
Properties=species:S:1:pos:R:3:forces:R:3 energy=981.3309628723481 pbc="F F F"
Na       0.00000000       0.00000000       0.00000000       0.00000000       0.00000000  -13832.93457031
Na       0.00000000       0.00000000       0.18000000       0.00000000       0.00000000   13832.93457031
2
Properties=species:S:1:pos:R:3:forces:R:3 energy=460.69802830203554 pbc="F F F"
Na       0.00000000       0.00000000       0.00000000       0.00000000       0.00000000   -5437.85742188
Na       0.00000000       0.00000000       0.23878788       0.00000000       0.00000000    5437.85742188
2
Properties=species:S:1:pos:R:3:forces:R:3 energy=241.25788853152773 pbc="F F F"
Na       0.00000000       0.00000000       0.00000000       0.00000000       0.00000000   -2485.17138672
Na       0.00000000       0.00000000       0.29757576       0.00000000       0.00000000    2485.17138672
2
Properties=species:S:1:pos:R:3:forces:R:3 energy=136.01011631473085 pbc="F F F"
Na       0.00000000       0.00000000       0.00000000       0.00000000       0.00000000   -1258.85449219
Na       0.00000000       0.00000000       0.35636364       0.00000000       0.00000000    1258.85449219
2
Properties=species:S:1:pos:R:3:forces:R:3 energy=80.82970402541821 pbc="F F F"
Na       0.00000000       0.00000000       0.00000000       0.00000000       0.00000000    -685.62561035
Na       0.00000000       0.00000000       0.41515152       0.00000000       0.00000000     685.62561035
2
Properties=species:S:1:pos:R:3:forces:R:3 energy=50.01796696645525 pbc="F F F"
Na       0.00000000       0.00000000       0.00000000       0.00000000       0.00000000    -393.38568115
Na       0.00000000       0.00000000       0.47393939       0.00000000       0.00000000     393.38568115
2
Properties=species:S:1:pos:R:3:forces:R:3 energy=32.01193212330058 pbc="F F F"
Na       0.00000000       0.00000000       0.00000000       0.00000000       0.00000000    -234.50238037
Na       0.00000000       0.00000000       0.53272727       0.00000000       0.00000000     234.50238037
2
Properties=species:S:1:pos:R:3:forces:R:3 energy=21.129354238269794 pbc="F F F"
Na       0.00000000       0.00000000       0.00000000       0.00000000       0.00000000    -143.84852600
Na       0.00000000       0.00000000       0.59151515       0.00000000       0.00000000     143.84852600
2
Properties=species:S:1:pos:R:3:forces:R:3 energy=14.383231895463325 pbc="F F F"
Na       0.00000000       0.00000000       0.00000000       0.00000000       0.00000000     -90.18437195
Na       0.00000000       0.00000000       0.65030303       0.00000000       0.00000000      90.18437195
2
Properties=species:S:1:pos:R:3:forces:R:3 energy=10.118855286821722 pbc="F F F"
Na       0.00000000       0.00000000       0.00000000       0.00000000       0.00000000     -57.52141190
Na       0.00000000       0.00000000       0.70909091       0.00000000       0.00000000      57.52141190
2
Properties=species:S:1:pos:R:3:forces:R:3 energy=7.379482600916105 pbc="F F F"
Na       0.00000000       0.00000000       0.00000000       0.00000000       0.00000000     -37.25709915
Na       0.00000000       0.00000000       0.76787879       0.00000000       0.00000000      37.25709915
2
Properties=species:S:1:pos:R:3:forces:R:3 energy=5.591206948751405 pbc="F F F"
Na       0.00000000       0.00000000       0.00000000       0.00000000       0.00000000     -24.56376076
Na       0.00000000       0.00000000       0.82666667       0.00000000       0.00000000      24.56376076
2
Properties=species:S:1:pos:R:3:forces:R:3 energy=4.399044053216001 pbc="F F F"
Na       0.00000000       0.00000000       0.00000000       0.00000000       0.00000000     -16.61816216
Na       0.00000000       0.00000000       0.88545455       0.00000000       0.00000000      16.61816216
2
Properties=species:S:1:pos:R:3:forces:R:3 energy=3.5780228694127736 pbc="F F F"
Na       0.00000000       0.00000000       0.00000000       0.00000000       0.00000000     -11.72086620
Na       0.00000000       0.00000000       0.94424242       0.00000000       0.00000000      11.72086620
2
Properties=species:S:1:pos:R:3:forces:R:3 energy=2.9812754179353256 pbc="F F F"
Na       0.00000000       0.00000000       0.00000000       0.00000000       0.00000000      -8.86100388
Na       0.00000000       0.00000000       1.00303030       0.00000000       0.00000000       8.86100388
2
Properties=species:S:1:pos:R:3:forces:R:3 energy=2.508791554823475 pbc="F F F"
Na       0.00000000       0.00000000       0.00000000       0.00000000       0.00000000      -7.39950562
Na       0.00000000       0.00000000       1.06181818       0.00000000       0.00000000       7.39950562
2
Properties=species:S:1:pos:R:3:forces:R:3 energy=2.0952965836605726 pbc="F F F"
Na       0.00000000       0.00000000       0.00000000       0.00000000       0.00000000      -6.75132132
Na       0.00000000       0.00000000       1.12060606       0.00000000       0.00000000       6.75132132
2
Properties=species:S:1:pos:R:3:forces:R:3 energy=1.710943139954404 pbc="F F F"
Na       0.00000000       0.00000000       0.00000000       0.00000000       0.00000000      -6.31813288
Na       0.00000000       0.00000000       1.17939394       0.00000000       0.00000000       6.31813288
2
Properties=species:S:1:pos:R:3:forces:R:3 energy=1.3561757820721931 pbc="F F F"
Na       0.00000000       0.00000000       0.00000000       0.00000000       0.00000000      -5.70466232
Na       0.00000000       0.00000000       1.23818182       0.00000000       0.00000000       5.70466232
2
Properties=species:S:1:pos:R:3:forces:R:3 energy=1.0460523391407457 pbc="F F F"
Na       0.00000000       0.00000000       0.00000000       0.00000000       0.00000000      -4.79754114
Na       0.00000000       0.00000000       1.29696970       0.00000000       0.00000000       4.79754114
2
Properties=species:S:1:pos:R:3:forces:R:3 energy=0.7970842846992937 pbc="F F F"
Na       0.00000000       0.00000000       0.00000000       0.00000000       0.00000000      -3.63937998
Na       0.00000000       0.00000000       1.35575758       0.00000000       0.00000000       3.63937998
2
Properties=species:S:1:pos:R:3:forces:R:3 energy=0.6202066088507286 pbc="F F F"
Na       0.00000000       0.00000000       0.00000000       0.00000000       0.00000000      -2.38083220
Na       0.00000000       0.00000000       1.41454545       0.00000000       0.00000000       2.38083220
2
Properties=species:S:1:pos:R:3:forces:R:3 energy=0.5139250706678637 pbc="F F F"
Na       0.00000000       0.00000000       0.00000000       0.00000000       0.00000000      -1.28763402
Na       0.00000000       0.00000000       1.47333333       0.00000000       0.00000000       1.28763402
2
Properties=species:S:1:pos:R:3:forces:R:3 energy=0.46004096088821844 pbc="F F F"
Na       0.00000000       0.00000000       0.00000000       0.00000000       0.00000000      -0.63747185
Na       0.00000000       0.00000000       1.53212121       0.00000000       0.00000000       0.63747185
2
Properties=species:S:1:pos:R:3:forces:R:3 energy=0.42730326840071886 pbc="F F F"
Na       0.00000000       0.00000000       0.00000000       0.00000000       0.00000000      -0.57418418
Na       0.00000000       0.00000000       1.59090909       0.00000000       0.00000000       0.57418418
2
Properties=species:S:1:pos:R:3:forces:R:3 energy=0.3832295862711979 pbc="F F F"
Na       0.00000000       0.00000000       0.00000000       0.00000000       0.00000000      -0.97264093
Na       0.00000000       0.00000000       1.64969697       0.00000000       0.00000000       0.97264093
2
Properties=species:S:1:pos:R:3:forces:R:3 energy=0.3123637940492132 pbc="F F F"
Na       0.00000000       0.00000000       0.00000000       0.00000000       0.00000000      -1.40480828
Na       0.00000000       0.00000000       1.70848485       0.00000000       0.00000000       1.40480828
2
Properties=species:S:1:pos:R:3:forces:R:3 energy=0.22401366294797562 pbc="F F F"
Na       0.00000000       0.00000000       0.00000000       0.00000000       0.00000000      -1.54915428
Na       0.00000000       0.00000000       1.76727273       0.00000000       0.00000000       1.54915428
2
Properties=species:S:1:pos:R:3:forces:R:3 energy=0.13467708039950665 pbc="F F F"
Na       0.00000000       0.00000000       0.00000000       0.00000000       0.00000000      -1.46938133
Na       0.00000000       0.00000000       1.82606061       0.00000000       0.00000000       1.46938133
2
Properties=species:S:1:pos:R:3:forces:R:3 energy=0.051831922344256126 pbc="F F F"
Na       0.00000000       0.00000000       0.00000000       0.00000000       0.00000000      -1.35686851
Na       0.00000000       0.00000000       1.88484848       0.00000000       0.00000000       1.35686851
2
Properties=species:S:1:pos:R:3:forces:R:3 energy=-0.026610386605075954 pbc="F F F"
Na       0.00000000       0.00000000       0.00000000       0.00000000       0.00000000      -1.32999170
Na       0.00000000       0.00000000       1.94363636       0.00000000       0.00000000       1.32999170
2
Properties=species:S:1:pos:R:3:forces:R:3 energy=-0.10652925348483833 pbc="F F F"
Na       0.00000000       0.00000000       0.00000000       0.00000000       0.00000000      -1.40258110
Na       0.00000000       0.00000000       2.00242424       0.00000000       0.00000000       1.40258110
2
Properties=species:S:1:pos:R:3:forces:R:3 energy=-0.19258263398049788 pbc="F F F"
Na       0.00000000       0.00000000       0.00000000       0.00000000       0.00000000      -1.52922666
Na       0.00000000       0.00000000       2.06121212       0.00000000       0.00000000       1.52922666
2
Properties=species:S:1:pos:R:3:forces:R:3 energy=-0.2862999675618514 pbc="F F F"
Na       0.00000000       0.00000000       0.00000000       0.00000000       0.00000000      -1.65477240
Na       0.00000000       0.00000000       2.12000000       0.00000000       0.00000000       1.65477240
2
Properties=species:S:1:pos:R:3:forces:R:3 energy=-0.3862563108688258 pbc="F F F"
Na       0.00000000       0.00000000       0.00000000       0.00000000       0.00000000      -1.73557401
Na       0.00000000       0.00000000       2.17878788       0.00000000       0.00000000       1.73557401
2
Properties=species:S:1:pos:R:3:forces:R:3 energy=-0.48894505654097864 pbc="F F F"
Na       0.00000000       0.00000000       0.00000000       0.00000000       0.00000000      -1.74478972
Na       0.00000000       0.00000000       2.23757576       0.00000000       0.00000000       1.74478972
2
Properties=species:S:1:pos:R:3:forces:R:3 energy=-0.5898382072732633 pbc="F F F"
Na       0.00000000       0.00000000       0.00000000       0.00000000       0.00000000      -1.67492151
Na       0.00000000       0.00000000       2.29636364       0.00000000       0.00000000       1.67492151
2
Properties=species:S:1:pos:R:3:forces:R:3 energy=-0.6845440863349678 pbc="F F F"
Na       0.00000000       0.00000000       0.00000000       0.00000000       0.00000000      -1.53759944
Na       0.00000000       0.00000000       2.35515152       0.00000000       0.00000000       1.53759944
2
Properties=species:S:1:pos:R:3:forces:R:3 energy=-0.7697795019972895 pbc="F F F"
Na       0.00000000       0.00000000       0.00000000       0.00000000       0.00000000      -1.35733426
Na       0.00000000       0.00000000       2.41393939       0.00000000       0.00000000       1.35733426
2
Properties=species:S:1:pos:R:3:forces:R:3 energy=-0.8438324320482152 pbc="F F F"
Na       0.00000000       0.00000000       0.00000000       0.00000000       0.00000000      -1.16148865
Na       0.00000000       0.00000000       2.47272727       0.00000000       0.00000000       1.16148865
2
Properties=species:S:1:pos:R:3:forces:R:3 energy=-0.9064736992124296 pbc="F F F"
Na       0.00000000       0.00000000       0.00000000       0.00000000       0.00000000      -0.97202688
Na       0.00000000       0.00000000       2.53151515       0.00000000       0.00000000       0.97202688
2
Properties=species:S:1:pos:R:3:forces:R:3 energy=-0.9585089378757147 pbc="F F F"
Na       0.00000000       0.00000000       0.00000000       0.00000000       0.00000000      -0.80218071
Na       0.00000000       0.00000000       2.59030303       0.00000000       0.00000000       0.80218071
2
Properties=species:S:1:pos:R:3:forces:R:3 energy=-1.0012795075551997 pbc="F F F"
Na       0.00000000       0.00000000       0.00000000       0.00000000       0.00000000      -0.65711272
Na       0.00000000       0.00000000       2.64909091       0.00000000       0.00000000       0.65711272
2
Properties=species:S:1:pos:R:3:forces:R:3 energy=-1.0362473740589644 pbc="F F F"
Na       0.00000000       0.00000000       0.00000000       0.00000000       0.00000000      -0.53631163
Na       0.00000000       0.00000000       2.70787879       0.00000000       0.00000000       0.53631163
2
Properties=species:S:1:pos:R:3:forces:R:3 energy=-1.0647391841484375 pbc="F F F"
Na       0.00000000       0.00000000       0.00000000       0.00000000       0.00000000      -0.43601319
Na       0.00000000       0.00000000       2.76666667       0.00000000       0.00000000       0.43601319
2
Properties=species:S:1:pos:R:3:forces:R:3 energy=-1.08781416755839 pbc="F F F"
Na       0.00000000       0.00000000       0.00000000       0.00000000       0.00000000      -0.35112816
Na       0.00000000       0.00000000       2.82545455       0.00000000       0.00000000       0.35112816
2
Properties=species:S:1:pos:R:3:forces:R:3 energy=-1.1062264787008096 pbc="F F F"
Na       0.00000000       0.00000000       0.00000000       0.00000000       0.00000000      -0.27664456
Na       0.00000000       0.00000000       2.88424242       0.00000000       0.00000000       0.27664456
2
Properties=species:S:1:pos:R:3:forces:R:3 energy=-1.1204638809993683 pbc="F F F"
Na       0.00000000       0.00000000       0.00000000       0.00000000       0.00000000      -0.20848364
Na       0.00000000       0.00000000       2.94303030       0.00000000       0.00000000       0.20848364
2
Properties=species:S:1:pos:R:3:forces:R:3 energy=-1.1308070746058707 pbc="F F F"
Na       0.00000000       0.00000000       0.00000000       0.00000000       0.00000000      -0.14383323
Na       0.00000000       0.00000000       3.00181818       0.00000000       0.00000000       0.14383323
2
Properties=species:S:1:pos:R:3:forces:R:3 energy=-1.13741243974268 pbc="F F F"
Na       0.00000000       0.00000000       0.00000000       0.00000000       0.00000000      -0.08113759
Na       0.00000000       0.00000000       3.06060606       0.00000000       0.00000000       0.08113759
2
Properties=species:S:1:pos:R:3:forces:R:3 energy=-1.1403773654895228 pbc="F F F"
Na       0.00000000       0.00000000       0.00000000       0.00000000       0.00000000      -0.02002496
Na       0.00000000       0.00000000       3.11939394       0.00000000       0.00000000       0.02002496
2
Properties=species:S:1:pos:R:3:forces:R:3 energy=-1.1398111288980608 pbc="F F F"
Na       0.00000000       0.00000000       0.00000000       0.00000000       0.00000000       0.03878130
Na       0.00000000       0.00000000       3.17818182       0.00000000       0.00000000      -0.03878130
2
Properties=species:S:1:pos:R:3:forces:R:3 energy=-1.1358940088330844 pbc="F F F"
Na       0.00000000       0.00000000       0.00000000       0.00000000       0.00000000       0.09367103
Na       0.00000000       0.00000000       3.23696970       0.00000000       0.00000000      -0.09367103
2
Properties=species:S:1:pos:R:3:forces:R:3 energy=-1.1289154689445795 pbc="F F F"
Na       0.00000000       0.00000000       0.00000000       0.00000000       0.00000000       0.14256455
Na       0.00000000       0.00000000       3.29575758       0.00000000       0.00000000      -0.14256455
2
Properties=species:S:1:pos:R:3:forces:R:3 energy=-1.1192907288014904 pbc="F F F"
Na       0.00000000       0.00000000       0.00000000       0.00000000       0.00000000       0.18335758
Na       0.00000000       0.00000000       3.35454545       0.00000000       0.00000000      -0.18335758
2
Properties=species:S:1:pos:R:3:forces:R:3 energy=-1.1075547456270232 pbc="F F F"
Na       0.00000000       0.00000000       0.00000000       0.00000000       0.00000000       0.21406706
Na       0.00000000       0.00000000       3.41333333       0.00000000       0.00000000      -0.21406706
2
Properties=species:S:1:pos:R:3:forces:R:3 energy=-1.0943611904596782 pbc="F F F"
Na       0.00000000       0.00000000       0.00000000       0.00000000       0.00000000       0.23252517
Na       0.00000000       0.00000000       3.47212121       0.00000000       0.00000000      -0.23252517
2
Properties=species:S:1:pos:R:3:forces:R:3 energy=-1.0805088103911162 pbc="F F F"
Na       0.00000000       0.00000000       0.00000000       0.00000000       0.00000000       0.23600754
Na       0.00000000       0.00000000       3.53090909       0.00000000       0.00000000      -0.23600754
2
Properties=species:S:1:pos:R:3:forces:R:3 energy=-1.066953336253255 pbc="F F F"
Na       0.00000000       0.00000000       0.00000000       0.00000000       0.00000000       0.22225283
Na       0.00000000       0.00000000       3.58969697       0.00000000       0.00000000      -0.22225283
2
Properties=species:S:1:pos:R:3:forces:R:3 energy=-1.0546656045031422 pbc="F F F"
Na       0.00000000       0.00000000       0.00000000       0.00000000       0.00000000       0.19421174
Na       0.00000000       0.00000000       3.64848485       0.00000000       0.00000000      -0.19421174
2
Properties=species:S:1:pos:R:3:forces:R:3 energy=-1.0441128510785822 pbc="F F F"
Na       0.00000000       0.00000000       0.00000000       0.00000000       0.00000000       0.16685170
Na       0.00000000       0.00000000       3.70727273       0.00000000       0.00000000      -0.16685170
2
Properties=species:S:1:pos:R:3:forces:R:3 energy=-1.0345705758374202 pbc="F F F"
Na       0.00000000       0.00000000       0.00000000       0.00000000       0.00000000       0.16340604
Na       0.00000000       0.00000000       3.76606061       0.00000000       0.00000000      -0.16340604
2
Properties=species:S:1:pos:R:3:forces:R:3 energy=-1.0241914924590783 pbc="F F F"
Na       0.00000000       0.00000000       0.00000000       0.00000000       0.00000000       0.19523837
Na       0.00000000       0.00000000       3.82484848       0.00000000       0.00000000      -0.19523837
2
Properties=species:S:1:pos:R:3:forces:R:3 energy=-1.011137839719291 pbc="F F F"
Na       0.00000000       0.00000000       0.00000000       0.00000000       0.00000000       0.25114974
Na       0.00000000       0.00000000       3.88363636       0.00000000       0.00000000      -0.25114974
2
Properties=species:S:1:pos:R:3:forces:R:3 energy=-0.9945857107338578 pbc="F F F"
Na       0.00000000       0.00000000       0.00000000       0.00000000       0.00000000       0.31126302
Na       0.00000000       0.00000000       3.94242424       0.00000000       0.00000000      -0.31126302
2
Properties=species:S:1:pos:R:3:forces:R:3 energy=-0.9747231319469539 pbc="F F F"
Na       0.00000000       0.00000000       0.00000000       0.00000000       0.00000000       0.36242557
Na       0.00000000       0.00000000       4.00121212       0.00000000       0.00000000      -0.36242557
2
Properties=species:S:1:pos:R:3:forces:R:3 energy=-0.9522331850225684 pbc="F F F"
Na       0.00000000       0.00000000       0.00000000       0.00000000       0.00000000       0.40049106
Na       0.00000000       0.00000000       4.06000000       0.00000000       0.00000000      -0.40049106
2
Properties=species:S:1:pos:R:3:forces:R:3 energy=-0.9278776534286801 pbc="F F F"
Na       0.00000000       0.00000000       0.00000000       0.00000000       0.00000000       0.42621005
Na       0.00000000       0.00000000       4.11878788       0.00000000       0.00000000      -0.42621005
2
Properties=species:S:1:pos:R:3:forces:R:3 energy=-0.902320459070853 pbc="F F F"
Na       0.00000000       0.00000000       0.00000000       0.00000000       0.00000000       0.44174266
Na       0.00000000       0.00000000       4.17757576       0.00000000       0.00000000      -0.44174266
2
Properties=species:S:1:pos:R:3:forces:R:3 energy=-0.8760985285921014 pbc="F F F"
Na       0.00000000       0.00000000       0.00000000       0.00000000       0.00000000       0.44911414
Na       0.00000000       0.00000000       4.23636364       0.00000000       0.00000000      -0.44911414
2
Properties=species:S:1:pos:R:3:forces:R:3 energy=-0.8496451200472349 pbc="F F F"
Na       0.00000000       0.00000000       0.00000000       0.00000000       0.00000000       0.44982439
Na       0.00000000       0.00000000       4.29515152       0.00000000       0.00000000      -0.44982439
2
Properties=species:S:1:pos:R:3:forces:R:3 energy=-0.8233204589989441 pbc="F F F"
Na       0.00000000       0.00000000       0.00000000       0.00000000       0.00000000       0.44492295
Na       0.00000000       0.00000000       4.35393939       0.00000000       0.00000000      -0.44492295
2
Properties=species:S:1:pos:R:3:forces:R:3 energy=-0.7974279658320153 pbc="F F F"
Na       0.00000000       0.00000000       0.00000000       0.00000000       0.00000000       0.43520203
Na       0.00000000       0.00000000       4.41272727       0.00000000       0.00000000      -0.43520203
2
Properties=species:S:1:pos:R:3:forces:R:3 energy=-0.7722319040265507 pbc="F F F"
Na       0.00000000       0.00000000       0.00000000       0.00000000       0.00000000       0.42134997
Na       0.00000000       0.00000000       4.47151515       0.00000000       0.00000000      -0.42134997
2
Properties=species:S:1:pos:R:3:forces:R:3 energy=-0.7479542001866643 pbc="F F F"
Na       0.00000000       0.00000000       0.00000000       0.00000000       0.00000000       0.40406367
Na       0.00000000       0.00000000       4.53030303       0.00000000       0.00000000      -0.40406367
2
Properties=species:S:1:pos:R:3:forces:R:3 energy=-0.7247769691634361 pbc="F F F"
Na       0.00000000       0.00000000       0.00000000       0.00000000       0.00000000       0.38406834
Na       0.00000000       0.00000000       4.58909091       0.00000000       0.00000000      -0.38406834
2
Properties=species:S:1:pos:R:3:forces:R:3 energy=-0.7028359256504926 pbc="F F F"
Na       0.00000000       0.00000000       0.00000000       0.00000000       0.00000000       0.36212415
Na       0.00000000       0.00000000       4.64787879       0.00000000       0.00000000      -0.36212415
2
Properties=species:S:1:pos:R:3:forces:R:3 energy=-0.6822229953894662 pbc="F F F"
Na       0.00000000       0.00000000       0.00000000       0.00000000       0.00000000       0.33898696
Na       0.00000000       0.00000000       4.70666667       0.00000000       0.00000000      -0.33898696
2
Properties=species:S:1:pos:R:3:forces:R:3 energy=-0.6629875832188645 pbc="F F F"
Na       0.00000000       0.00000000       0.00000000       0.00000000       0.00000000       0.31541008
Na       0.00000000       0.00000000       4.76545455       0.00000000       0.00000000      -0.31541008
2
Properties=species:S:1:pos:R:3:forces:R:3 energy=-0.6451331110131662 pbc="F F F"
Na       0.00000000       0.00000000       0.00000000       0.00000000       0.00000000       0.29209757
Na       0.00000000       0.00000000       4.82424242       0.00000000       0.00000000      -0.29209757
2
Properties=species:S:1:pos:R:3:forces:R:3 energy=-0.6286270497741909 pbc="F F F"
Na       0.00000000       0.00000000       0.00000000       0.00000000       0.00000000       0.26968601
Na       0.00000000       0.00000000       4.88303030       0.00000000       0.00000000      -0.26968601
2
Properties=species:S:1:pos:R:3:forces:R:3 energy=-0.6133970209066228 pbc="F F F"
Na       0.00000000       0.00000000       0.00000000       0.00000000       0.00000000       0.24869058
Na       0.00000000       0.00000000       4.94181818       0.00000000       0.00000000      -0.24869058
2
Properties=species:S:1:pos:R:3:forces:R:3 energy=-0.5993511185700907 pbc="F F F"
Na       0.00000000       0.00000000       0.00000000       0.00000000       0.00000000       0.22945575
Na       0.00000000       0.00000000       5.00060606       0.00000000       0.00000000      -0.22945575
2
Properties=species:S:1:pos:R:3:forces:R:3 energy=-0.5863812878890448 pbc="F F F"
Na       0.00000000       0.00000000       0.00000000       0.00000000       0.00000000       0.21209526
Na       0.00000000       0.00000000       5.05939394       0.00000000       0.00000000      -0.21209526
2
Properties=species:S:1:pos:R:3:forces:R:3 energy=-0.5743791760364693 pbc="F F F"
Na       0.00000000       0.00000000       0.00000000       0.00000000       0.00000000       0.19649570
Na       0.00000000       0.00000000       5.11818182       0.00000000       0.00000000      -0.19649570
2
Properties=species:S:1:pos:R:3:forces:R:3 energy=-0.563250397918869 pbc="F F F"
Na       0.00000000       0.00000000       0.00000000       0.00000000       0.00000000       0.18233588
Na       0.00000000       0.00000000       5.17696970       0.00000000       0.00000000      -0.18233588
2
Properties=species:S:1:pos:R:3:forces:R:3 energy=-0.5529224476309418 pbc="F F F"
Na       0.00000000       0.00000000       0.00000000       0.00000000       0.00000000       0.16916245
Na       0.00000000       0.00000000       5.23575758       0.00000000       0.00000000      -0.16916245
2
Properties=species:S:1:pos:R:3:forces:R:3 energy=-0.5433520640889543 pbc="F F F"
Na       0.00000000       0.00000000       0.00000000       0.00000000       0.00000000       0.15647659
Na       0.00000000       0.00000000       5.29454545       0.00000000       0.00000000      -0.15647659
2
Properties=species:S:1:pos:R:3:forces:R:3 energy=-0.5345234839491154 pbc="F F F"
Na       0.00000000       0.00000000       0.00000000       0.00000000       0.00000000       0.14383690
Na       0.00000000       0.00000000       5.35333333       0.00000000       0.00000000      -0.14383690
2
Properties=species:S:1:pos:R:3:forces:R:3 energy=-0.5264448362345143 pbc="F F F"
Na       0.00000000       0.00000000       0.00000000       0.00000000       0.00000000       0.13093325
Na       0.00000000       0.00000000       5.41212121       0.00000000       0.00000000      -0.13093325
2
Properties=species:S:1:pos:R:3:forces:R:3 energy=-0.5191366828642179 pbc="F F F"
Na       0.00000000       0.00000000       0.00000000       0.00000000       0.00000000       0.11763573
Na       0.00000000       0.00000000       5.47090909       0.00000000       0.00000000      -0.11763573
2
Properties=species:S:1:pos:R:3:forces:R:3 energy=-0.5126203164280149 pbc="F F F"
Na       0.00000000       0.00000000       0.00000000       0.00000000       0.00000000       0.10400271
Na       0.00000000       0.00000000       5.52969697       0.00000000       0.00000000      -0.10400271
2
Properties=species:S:1:pos:R:3:forces:R:3 energy=-0.5069106285118751 pbc="F F F"
Na       0.00000000       0.00000000       0.00000000       0.00000000       0.00000000       0.09025881
Na       0.00000000       0.00000000       5.58848485       0.00000000       0.00000000      -0.09025881
2
Properties=species:S:1:pos:R:3:forces:R:3 energy=-0.5020033199179282 pbc="F F F"
Na       0.00000000       0.00000000       0.00000000       0.00000000       0.00000000       0.07676634
Na       0.00000000       0.00000000       5.64727273       0.00000000       0.00000000      -0.07676634
2
Properties=species:S:1:pos:R:3:forces:R:3 energy=-0.4978719045931153 pbc="F F F"
Na       0.00000000       0.00000000       0.00000000       0.00000000       0.00000000       0.06397176
Na       0.00000000       0.00000000       5.70606061       0.00000000       0.00000000      -0.06397176
2
Properties=species:S:1:pos:R:3:forces:R:3 energy=-0.49445729136366956 pbc="F F F"
Na       0.00000000       0.00000000       0.00000000       0.00000000       0.00000000       0.05233432
Na       0.00000000       0.00000000       5.76484848       0.00000000       0.00000000      -0.05233432
2
Properties=species:S:1:pos:R:3:forces:R:3 energy=-0.49168531391235437 pbc="F F F"
Na       0.00000000       0.00000000       0.00000000       0.00000000       0.00000000       0.04232899
Na       0.00000000       0.00000000       5.82363636       0.00000000       0.00000000      -0.04232899
2
Properties=species:S:1:pos:R:3:forces:R:3 energy=-0.489442886460678 pbc="F F F"
Na       0.00000000       0.00000000       0.00000000       0.00000000       0.00000000       0.03437399
Na       0.00000000       0.00000000       5.88242424       0.00000000       0.00000000      -0.03437399
2
Properties=species:S:1:pos:R:3:forces:R:3 energy=-0.4875965083032789 pbc="F F F"
Na       0.00000000       0.00000000       0.00000000       0.00000000       0.00000000       0.02883664
Na       0.00000000       0.00000000       5.94121212       0.00000000       0.00000000      -0.02883664
2
Properties=species:S:1:pos:R:3:forces:R:3 energy=-0.4859983915830012 pbc="F F F"
Na       0.00000000       0.00000000       0.00000000       0.00000000       0.00000000       0.02602784
Na       0.00000000       0.00000000       6.00000000       0.00000000       0.00000000      -0.02602784
