2
Properties=species:S:1:pos:R:3:forces:R:3 energy=11710.427880063378 pbc="F F F"
Nd       0.00000000       0.00000000       0.00000000       0.00000000       0.00000000 -199983.79687500
Nd       0.00000000       0.00000000       0.18000000       0.00000000       0.00000000  199983.79687500
2
Properties=species:S:1:pos:R:3:forces:R:3 energy=4661.451805844628 pbc="F F F"
Nd       0.00000000       0.00000000       0.00000000       0.00000000       0.00000000  -67531.46875000
Nd       0.00000000       0.00000000       0.23878788       0.00000000       0.00000000   67531.46875000
2
Properties=species:S:1:pos:R:3:forces:R:3 energy=2094.7389152196283 pbc="F F F"
Nd       0.00000000       0.00000000       0.00000000       0.00000000       0.00000000  -26857.13867188
Nd       0.00000000       0.00000000       0.29757576       0.00000000       0.00000000   26857.13867188
2
Properties=species:S:1:pos:R:3:forces:R:3 energy=1024.9624259618158 pbc="F F F"
Nd       0.00000000       0.00000000       0.00000000       0.00000000       0.00000000  -11820.03417969
Nd       0.00000000       0.00000000       0.35636364       0.00000000       0.00000000   11820.03417969
2
Properties=species:S:1:pos:R:3:forces:R:3 energy=538.5291984354247 pbc="F F F"
Nd       0.00000000       0.00000000       0.00000000       0.00000000       0.00000000   -5585.45947266
Nd       0.00000000       0.00000000       0.41515152       0.00000000       0.00000000    5585.45947266
2
Properties=species:S:1:pos:R:3:forces:R:3 energy=302.6949394148929 pbc="F F F"
Nd       0.00000000       0.00000000       0.00000000       0.00000000       0.00000000   -2792.27441406
Nd       0.00000000       0.00000000       0.47393939       0.00000000       0.00000000    2792.27441406
2
Properties=species:S:1:pos:R:3:forces:R:3 energy=182.1802299549079 pbc="F F F"
Nd       0.00000000       0.00000000       0.00000000       0.00000000       0.00000000   -1464.80029297
Nd       0.00000000       0.00000000       0.53272727       0.00000000       0.00000000    1464.80029297
2
Properties=species:S:1:pos:R:3:forces:R:3 energy=117.71735462671082 pbc="F F F"
Nd       0.00000000       0.00000000       0.00000000       0.00000000       0.00000000    -801.74328613
Nd       0.00000000       0.00000000       0.59151515       0.00000000       0.00000000     801.74328613
2
Properties=species:S:1:pos:R:3:forces:R:3 energy=81.81620874233738 pbc="F F F"
Nd       0.00000000       0.00000000       0.00000000       0.00000000       0.00000000    -455.66653442
Nd       0.00000000       0.00000000       0.65030303       0.00000000       0.00000000     455.66653442
2
Properties=species:S:1:pos:R:3:forces:R:3 energy=61.085640886236206 pbc="F F F"
Nd       0.00000000       0.00000000       0.00000000       0.00000000       0.00000000    -268.11877441
Nd       0.00000000       0.00000000       0.70909091       0.00000000       0.00000000     268.11877441
2
Properties=species:S:1:pos:R:3:forces:R:3 energy=48.68266781255769 pbc="F F F"
Nd       0.00000000       0.00000000       0.00000000       0.00000000       0.00000000    -163.88446045
Nd       0.00000000       0.00000000       0.76787879       0.00000000       0.00000000     163.88446045
2
Properties=species:S:1:pos:R:3:forces:R:3 energy=40.91594054244596 pbc="F F F"
Nd       0.00000000       0.00000000       0.00000000       0.00000000       0.00000000    -106.20196533
Nd       0.00000000       0.00000000       0.82666667       0.00000000       0.00000000     106.20196533
2
Properties=species:S:1:pos:R:3:forces:R:3 energy=35.647176300022124 pbc="F F F"
Nd       0.00000000       0.00000000       0.00000000       0.00000000       0.00000000     -76.80461121
Nd       0.00000000       0.00000000       0.88545455       0.00000000       0.00000000      76.80461121
2
Properties=species:S:1:pos:R:3:forces:R:3 energy=31.51692572403207 pbc="F F F"
Nd       0.00000000       0.00000000       0.00000000       0.00000000       0.00000000     -66.33174133
Nd       0.00000000       0.00000000       0.94424242       0.00000000       0.00000000      66.33174133
2
Properties=species:S:1:pos:R:3:forces:R:3 energy=27.59098281823596 pbc="F F F"
Nd       0.00000000       0.00000000       0.00000000       0.00000000       0.00000000     -68.98248291
Nd       0.00000000       0.00000000       1.00303030       0.00000000       0.00000000      68.98248291
2
Properties=species:S:1:pos:R:3:forces:R:3 energy=23.257746770135743 pbc="F F F"
Nd       0.00000000       0.00000000       0.00000000       0.00000000       0.00000000     -79.15495300
Nd       0.00000000       0.00000000       1.06181818       0.00000000       0.00000000      79.15495300
2
Properties=species:S:1:pos:R:3:forces:R:3 energy=18.27497479196364 pbc="F F F"
Nd       0.00000000       0.00000000       0.00000000       0.00000000       0.00000000     -89.74150848
Nd       0.00000000       0.00000000       1.12060606       0.00000000       0.00000000      89.74150848
2
Properties=species:S:1:pos:R:3:forces:R:3 energy=12.866913938507153 pbc="F F F"
Nd       0.00000000       0.00000000       0.00000000       0.00000000       0.00000000     -92.15441132
Nd       0.00000000       0.00000000       1.17939394       0.00000000       0.00000000      92.15441132
2
Properties=species:S:1:pos:R:3:forces:R:3 energy=7.742415597884296 pbc="F F F"
Nd       0.00000000       0.00000000       0.00000000       0.00000000       0.00000000     -79.50924683
Nd       0.00000000       0.00000000       1.23818182       0.00000000       0.00000000      79.50924683
2
Properties=species:S:1:pos:R:3:forces:R:3 energy=3.7531152768654286 pbc="F F F"
Nd       0.00000000       0.00000000       0.00000000       0.00000000       0.00000000     -55.28831100
Nd       0.00000000       0.00000000       1.29696970       0.00000000       0.00000000      55.28831100
2
Properties=species:S:1:pos:R:3:forces:R:3 energy=1.233555746937692 pbc="F F F"
Nd       0.00000000       0.00000000       0.00000000       0.00000000       0.00000000     -31.14021492
Nd       0.00000000       0.00000000       1.35575758       0.00000000       0.00000000      31.14021492
2
Properties=species:S:1:pos:R:3:forces:R:3 energy=-0.034285096225118494 pbc="F F F"
Nd       0.00000000       0.00000000       0.00000000       0.00000000       0.00000000     -13.42415047
Nd       0.00000000       0.00000000       1.41454545       0.00000000       0.00000000      13.42415047
2
Properties=species:S:1:pos:R:3:forces:R:3 energy=-0.5405422122432102 pbc="F F F"
Nd       0.00000000       0.00000000       0.00000000       0.00000000       0.00000000      -5.44905186
Nd       0.00000000       0.00000000       1.47333333       0.00000000       0.00000000       5.44905186
2
Properties=species:S:1:pos:R:3:forces:R:3 energy=-0.8216152776984248 pbc="F F F"
Nd       0.00000000       0.00000000       0.00000000       0.00000000       0.00000000      -4.83877230
Nd       0.00000000       0.00000000       1.53212121       0.00000000       0.00000000       4.83877230
2
Properties=species:S:1:pos:R:3:forces:R:3 energy=-1.1402333211448206 pbc="F F F"
Nd       0.00000000       0.00000000       0.00000000       0.00000000       0.00000000      -5.90751839
Nd       0.00000000       0.00000000       1.59090909       0.00000000       0.00000000       5.90751839
2
Properties=species:S:1:pos:R:3:forces:R:3 energy=-1.4808993874465575 pbc="F F F"
Nd       0.00000000       0.00000000       0.00000000       0.00000000       0.00000000      -5.25871849
Nd       0.00000000       0.00000000       1.64969697       0.00000000       0.00000000       5.25871849
2
Properties=species:S:1:pos:R:3:forces:R:3 energy=-1.708705909017742 pbc="F F F"
Nd       0.00000000       0.00000000       0.00000000       0.00000000       0.00000000      -2.14656615
Nd       0.00000000       0.00000000       1.70848485       0.00000000       0.00000000       2.14656615
2
Properties=species:S:1:pos:R:3:forces:R:3 energy=-1.712404258447312 pbc="F F F"
Nd       0.00000000       0.00000000       0.00000000       0.00000000       0.00000000       2.00655603
Nd       0.00000000       0.00000000       1.76727273       0.00000000       0.00000000      -2.00655603
2
Properties=species:S:1:pos:R:3:forces:R:3 energy=-1.4946166674703234 pbc="F F F"
Nd       0.00000000       0.00000000       0.00000000       0.00000000       0.00000000       5.08698893
Nd       0.00000000       0.00000000       1.82606061       0.00000000       0.00000000      -5.08698893
2
Properties=species:S:1:pos:R:3:forces:R:3 energy=-1.1578885016719296 pbc="F F F"
Nd       0.00000000       0.00000000       0.00000000       0.00000000       0.00000000       5.98953009
Nd       0.00000000       0.00000000       1.88484848       0.00000000       0.00000000      -5.98953009
2
Properties=species:S:1:pos:R:3:forces:R:3 energy=-0.8296493684142527 pbc="F F F"
Nd       0.00000000       0.00000000       0.00000000       0.00000000       0.00000000       4.91413784
Nd       0.00000000       0.00000000       1.94363636       0.00000000       0.00000000      -4.91413784
2
Properties=species:S:1:pos:R:3:forces:R:3 energy=-0.600029093021681 pbc="F F F"
Nd       0.00000000       0.00000000       0.00000000       0.00000000       0.00000000       2.82601881
Nd       0.00000000       0.00000000       2.00242424       0.00000000       0.00000000      -2.82601881
2
Properties=species:S:1:pos:R:3:forces:R:3 energy=-0.49586932771790443 pbc="F F F"
Nd       0.00000000       0.00000000       0.00000000       0.00000000       0.00000000       0.79477137
Nd       0.00000000       0.00000000       2.06121212       0.00000000       0.00000000      -0.79477137
2
Properties=species:S:1:pos:R:3:forces:R:3 energy=-0.4940989061894481 pbc="F F F"
Nd       0.00000000       0.00000000       0.00000000       0.00000000       0.00000000      -0.62000299
Nd       0.00000000       0.00000000       2.12000000       0.00000000       0.00000000       0.62000299
2
Properties=species:S:1:pos:R:3:forces:R:3 energy=-0.5566285059307851 pbc="F F F"
Nd       0.00000000       0.00000000       0.00000000       0.00000000       0.00000000      -1.42110002
Nd       0.00000000       0.00000000       2.17878788       0.00000000       0.00000000       1.42110002
2
Properties=species:S:1:pos:R:3:forces:R:3 energy=-0.6532027754877435 pbc="F F F"
Nd       0.00000000       0.00000000       0.00000000       0.00000000       0.00000000      -1.81286931
Nd       0.00000000       0.00000000       2.23757576       0.00000000       0.00000000       1.81286931
2
Properties=species:S:1:pos:R:3:forces:R:3 energy=-0.7651923857099148 pbc="F F F"
Nd       0.00000000       0.00000000       0.00000000       0.00000000       0.00000000      -1.96831667
Nd       0.00000000       0.00000000       2.29636364       0.00000000       0.00000000       1.96831667
2
Properties=species:S:1:pos:R:3:forces:R:3 energy=-0.8821259766759554 pbc="F F F"
Nd       0.00000000       0.00000000       0.00000000       0.00000000       0.00000000      -1.99475050
Nd       0.00000000       0.00000000       2.35515152       0.00000000       0.00000000       1.99475050
2
Properties=species:S:1:pos:R:3:forces:R:3 energy=-0.9985125104115763 pbc="F F F"
Nd       0.00000000       0.00000000       0.00000000       0.00000000       0.00000000      -1.95837104
Nd       0.00000000       0.00000000       2.41393939       0.00000000       0.00000000       1.95837104
2
Properties=species:S:1:pos:R:3:forces:R:3 energy=-1.1119721161627425 pbc="F F F"
Nd       0.00000000       0.00000000       0.00000000       0.00000000       0.00000000      -1.90040088
Nd       0.00000000       0.00000000       2.47272727       0.00000000       0.00000000       1.90040088
2
Properties=species:S:1:pos:R:3:forces:R:3 energy=-1.2219796028930294 pbc="F F F"
Nd       0.00000000       0.00000000       0.00000000       0.00000000       0.00000000      -1.84331608
Nd       0.00000000       0.00000000       2.53151515       0.00000000       0.00000000       1.84331608
2
Properties=species:S:1:pos:R:3:forces:R:3 energy=-1.3288814050450342 pbc="F F F"
Nd       0.00000000       0.00000000       0.00000000       0.00000000       0.00000000      -1.79510581
Nd       0.00000000       0.00000000       2.59030303       0.00000000       0.00000000       1.79510581
2
Properties=species:S:1:pos:R:3:forces:R:3 energy=-1.4331864393230112 pbc="F F F"
Nd       0.00000000       0.00000000       0.00000000       0.00000000       0.00000000      -1.75416064
Nd       0.00000000       0.00000000       2.64909091       0.00000000       0.00000000       1.75416064
2
Properties=species:S:1:pos:R:3:forces:R:3 energy=-1.5351534288909192 pbc="F F F"
Nd       0.00000000       0.00000000       0.00000000       0.00000000       0.00000000      -1.71445978
Nd       0.00000000       0.00000000       2.70787879       0.00000000       0.00000000       1.71445978
2
Properties=species:S:1:pos:R:3:forces:R:3 energy=-1.634668410659716 pbc="F F F"
Nd       0.00000000       0.00000000       0.00000000       0.00000000       0.00000000      -1.66987360
Nd       0.00000000       0.00000000       2.76666667       0.00000000       0.00000000       1.66987360
2
Properties=species:S:1:pos:R:3:forces:R:3 energy=-1.7313092326806963 pbc="F F F"
Nd       0.00000000       0.00000000       0.00000000       0.00000000       0.00000000      -1.61614633
Nd       0.00000000       0.00000000       2.82545455       0.00000000       0.00000000       1.61614633
2
Properties=species:S:1:pos:R:3:forces:R:3 energy=-1.8244487335373973 pbc="F F F"
Nd       0.00000000       0.00000000       0.00000000       0.00000000       0.00000000      -1.55019116
Nd       0.00000000       0.00000000       2.88424242       0.00000000       0.00000000       1.55019116
2
Properties=species:S:1:pos:R:3:forces:R:3 energy=-1.9132592596273124 pbc="F F F"
Nd       0.00000000       0.00000000       0.00000000       0.00000000       0.00000000      -1.46807694
Nd       0.00000000       0.00000000       2.94303030       0.00000000       0.00000000       1.46807694
2
Properties=species:S:1:pos:R:3:forces:R:3 energy=-1.9966271235771484 pbc="F F F"
Nd       0.00000000       0.00000000       0.00000000       0.00000000       0.00000000      -1.36386514
Nd       0.00000000       0.00000000       3.00181818       0.00000000       0.00000000       1.36386514
2
Properties=species:S:1:pos:R:3:forces:R:3 energy=-2.073045351560191 pbc="F F F"
Nd       0.00000000       0.00000000       0.00000000       0.00000000       0.00000000      -1.23056006
Nd       0.00000000       0.00000000       3.06060606       0.00000000       0.00000000       1.23056006
2
Properties=species:S:1:pos:R:3:forces:R:3 energy=-2.1406330102084064 pbc="F F F"
Nd       0.00000000       0.00000000       0.00000000       0.00000000       0.00000000      -1.06286824
Nd       0.00000000       0.00000000       3.11939394       0.00000000       0.00000000       1.06286824
2
Properties=species:S:1:pos:R:3:forces:R:3 energy=-2.197321949380413 pbc="F F F"
Nd       0.00000000       0.00000000       0.00000000       0.00000000       0.00000000      -0.86012655
Nd       0.00000000       0.00000000       3.17818182       0.00000000       0.00000000       0.86012655
2
Properties=species:S:1:pos:R:3:forces:R:3 energy=-2.2411756945146313 pbc="F F F"
Nd       0.00000000       0.00000000       0.00000000       0.00000000       0.00000000      -0.62756026
Nd       0.00000000       0.00000000       3.23696970       0.00000000       0.00000000       0.62756026
2
Properties=species:S:1:pos:R:3:forces:R:3 energy=-2.270715149415004 pbc="F F F"
Nd       0.00000000       0.00000000       0.00000000       0.00000000       0.00000000      -0.37505332
Nd       0.00000000       0.00000000       3.29575758       0.00000000       0.00000000       0.37505332
2
Properties=species:S:1:pos:R:3:forces:R:3 energy=-2.285117797309744 pbc="F F F"
Nd       0.00000000       0.00000000       0.00000000       0.00000000       0.00000000      -0.11463971
Nd       0.00000000       0.00000000       3.35454545       0.00000000       0.00000000       0.11463971
2
Properties=species:S:1:pos:R:3:forces:R:3 energy=-2.284280065148749 pbc="F F F"
Nd       0.00000000       0.00000000       0.00000000       0.00000000       0.00000000       0.14142537
Nd       0.00000000       0.00000000       3.41333333       0.00000000       0.00000000      -0.14142537
2
Properties=species:S:1:pos:R:3:forces:R:3 energy=-2.2688082003411507 pbc="F F F"
Nd       0.00000000       0.00000000       0.00000000       0.00000000       0.00000000       0.38124260
Nd       0.00000000       0.00000000       3.47212121       0.00000000       0.00000000      -0.38124260
2
Properties=species:S:1:pos:R:3:forces:R:3 energy=-2.2400005160747707 pbc="F F F"
Nd       0.00000000       0.00000000       0.00000000       0.00000000       0.00000000       0.59329730
Nd       0.00000000       0.00000000       3.53090909       0.00000000       0.00000000      -0.59329730
2
Properties=species:S:1:pos:R:3:forces:R:3 energy=-2.199798865631676 pbc="F F F"
Nd       0.00000000       0.00000000       0.00000000       0.00000000       0.00000000       0.76730311
Nd       0.00000000       0.00000000       3.58969697       0.00000000       0.00000000      -0.76730311
2
Properties=species:S:1:pos:R:3:forces:R:3 energy=-2.150669082974355 pbc="F F F"
Nd       0.00000000       0.00000000       0.00000000       0.00000000       0.00000000       0.89629978
Nd       0.00000000       0.00000000       3.64848485       0.00000000       0.00000000      -0.89629978
2
Properties=species:S:1:pos:R:3:forces:R:3 energy=-2.0953263372138835 pbc="F F F"
Nd       0.00000000       0.00000000       0.00000000       0.00000000       0.00000000       0.97908324
Nd       0.00000000       0.00000000       3.70727273       0.00000000       0.00000000      -0.97908324
2
Properties=species:S:1:pos:R:3:forces:R:3 energy=-2.036349546411071 pbc="F F F"
Nd       0.00000000       0.00000000       0.00000000       0.00000000       0.00000000       1.02138829
Nd       0.00000000       0.00000000       3.76606061       0.00000000       0.00000000      -1.02138829
2
Properties=species:S:1:pos:R:3:forces:R:3 energy=-1.9758062892986914 pbc="F F F"
Nd       0.00000000       0.00000000       0.00000000       0.00000000       0.00000000       1.03464866
Nd       0.00000000       0.00000000       3.82484848       0.00000000       0.00000000      -1.03464866
2
Properties=species:S:1:pos:R:3:forces:R:3 energy=-1.9149997746449174 pbc="F F F"
Nd       0.00000000       0.00000000       0.00000000       0.00000000       0.00000000       1.03252816
Nd       0.00000000       0.00000000       3.88363636       0.00000000       0.00000000      -1.03252816
2
Properties=species:S:1:pos:R:3:forces:R:3 energy=-1.8544726179367226 pbc="F F F"
Nd       0.00000000       0.00000000       0.00000000       0.00000000       0.00000000       1.02683055
Nd       0.00000000       0.00000000       3.94242424       0.00000000       0.00000000      -1.02683055
2
Properties=species:S:1:pos:R:3:forces:R:3 energy=-1.794199339039928 pbc="F F F"
Nd       0.00000000       0.00000000       0.00000000       0.00000000       0.00000000       1.02459347
Nd       0.00000000       0.00000000       4.00121212       0.00000000       0.00000000      -1.02459347
2
Properties=species:S:1:pos:R:3:forces:R:3 energy=-1.733904113144606 pbc="F F F"
Nd       0.00000000       0.00000000       0.00000000       0.00000000       0.00000000       1.02739966
Nd       0.00000000       0.00000000       4.06000000       0.00000000       0.00000000      -1.02739966
2
Properties=species:S:1:pos:R:3:forces:R:3 energy=-1.673352757496748 pbc="F F F"
Nd       0.00000000       0.00000000       0.00000000       0.00000000       0.00000000       1.03268504
Nd       0.00000000       0.00000000       4.11878788       0.00000000       0.00000000      -1.03268504
2
Properties=species:S:1:pos:R:3:forces:R:3 energy=-1.6125250014929533 pbc="F F F"
Nd       0.00000000       0.00000000       0.00000000       0.00000000       0.00000000       1.03593826
Nd       0.00000000       0.00000000       4.17757576       0.00000000       0.00000000      -1.03593826
2
Properties=species:S:1:pos:R:3:forces:R:3 energy=-1.551676759447038 pbc="F F F"
Nd       0.00000000       0.00000000       0.00000000       0.00000000       0.00000000       1.03276157
Nd       0.00000000       0.00000000       4.23636364       0.00000000       0.00000000      -1.03276157
2
Properties=species:S:1:pos:R:3:forces:R:3 energy=-1.4912827275653169 pbc="F F F"
Nd       0.00000000       0.00000000       0.00000000       0.00000000       0.00000000       1.02010930
Nd       0.00000000       0.00000000       4.29515152       0.00000000       0.00000000      -1.02010930
2
Properties=species:S:1:pos:R:3:forces:R:3 energy=-1.4319493686688287 pbc="F F F"
Nd       0.00000000       0.00000000       0.00000000       0.00000000       0.00000000       0.99671078
Nd       0.00000000       0.00000000       4.35393939       0.00000000       0.00000000      -0.99671078
2
Properties=species:S:1:pos:R:3:forces:R:3 energy=-1.3742999310817658 pbc="F F F"
Nd       0.00000000       0.00000000       0.00000000       0.00000000       0.00000000       0.96291190
Nd       0.00000000       0.00000000       4.41272727       0.00000000       0.00000000      -0.96291190
2
Properties=species:S:1:pos:R:3:forces:R:3 energy=-1.3189063697917558 pbc="F F F"
Nd       0.00000000       0.00000000       0.00000000       0.00000000       0.00000000       0.92030150
Nd       0.00000000       0.00000000       4.47151515       0.00000000       0.00000000      -0.92030150
2
Properties=species:S:1:pos:R:3:forces:R:3 energy=-1.2662197080498798 pbc="F F F"
Nd       0.00000000       0.00000000       0.00000000       0.00000000       0.00000000       0.87126786
Nd       0.00000000       0.00000000       4.53030303       0.00000000       0.00000000      -0.87126786
2
Properties=species:S:1:pos:R:3:forces:R:3 energy=-1.2165391011441393 pbc="F F F"
Nd       0.00000000       0.00000000       0.00000000       0.00000000       0.00000000       0.81855762
Nd       0.00000000       0.00000000       4.58909091       0.00000000       0.00000000      -0.81855762
2
Properties=species:S:1:pos:R:3:forces:R:3 energy=-1.1699967221622605 pbc="F F F"
Nd       0.00000000       0.00000000       0.00000000       0.00000000       0.00000000       0.76491135
Nd       0.00000000       0.00000000       4.64787879       0.00000000       0.00000000      -0.76491135
2
Properties=species:S:1:pos:R:3:forces:R:3 energy=-1.126575166547969 pbc="F F F"
Nd       0.00000000       0.00000000       0.00000000       0.00000000       0.00000000       0.71267772
Nd       0.00000000       0.00000000       4.70666667       0.00000000       0.00000000      -0.71267772
2
Properties=species:S:1:pos:R:3:forces:R:3 energy=-1.0861400164119221 pbc="F F F"
Nd       0.00000000       0.00000000       0.00000000       0.00000000       0.00000000       0.66363245
Nd       0.00000000       0.00000000       4.76545455       0.00000000       0.00000000      -0.66363245
2
Properties=species:S:1:pos:R:3:forces:R:3 energy=-1.0484622607976344 pbc="F F F"
Nd       0.00000000       0.00000000       0.00000000       0.00000000       0.00000000       0.61888254
Nd       0.00000000       0.00000000       4.82424242       0.00000000       0.00000000      -0.61888254
2
Properties=species:S:1:pos:R:3:forces:R:3 energy=-1.013281326885381 pbc="F F F"
Nd       0.00000000       0.00000000       0.00000000       0.00000000       0.00000000       0.57894212
Nd       0.00000000       0.00000000       4.88303030       0.00000000       0.00000000      -0.57894212
2
Properties=species:S:1:pos:R:3:forces:R:3 energy=-0.9802996902315907 pbc="F F F"
Nd       0.00000000       0.00000000       0.00000000       0.00000000       0.00000000       0.54382545
Nd       0.00000000       0.00000000       4.94181818       0.00000000       0.00000000      -0.54382545
2
Properties=species:S:1:pos:R:3:forces:R:3 energy=-0.9492508836685342 pbc="F F F"
Nd       0.00000000       0.00000000       0.00000000       0.00000000       0.00000000       0.51319909
Nd       0.00000000       0.00000000       5.00060606       0.00000000       0.00000000      -0.51319909
2
Properties=species:S:1:pos:R:3:forces:R:3 energy=-0.9198830285833857 pbc="F F F"
Nd       0.00000000       0.00000000       0.00000000       0.00000000       0.00000000       0.48641315
Nd       0.00000000       0.00000000       5.05939394       0.00000000       0.00000000      -0.48641315
2
Properties=species:S:1:pos:R:3:forces:R:3 energy=-0.8920034966361405 pbc="F F F"
Nd       0.00000000       0.00000000       0.00000000       0.00000000       0.00000000       0.46251449
Nd       0.00000000       0.00000000       5.11818182       0.00000000       0.00000000      -0.46251449
2
Properties=species:S:1:pos:R:3:forces:R:3 energy=-0.8654710851280626 pbc="F F F"
Nd       0.00000000       0.00000000       0.00000000       0.00000000       0.00000000       0.44029537
Nd       0.00000000       0.00000000       5.17696970       0.00000000       0.00000000      -0.44029537
2
Properties=species:S:1:pos:R:3:forces:R:3 energy=-0.840231316790632 pbc="F F F"
Nd       0.00000000       0.00000000       0.00000000       0.00000000       0.00000000       0.41833073
Nd       0.00000000       0.00000000       5.23575758       0.00000000       0.00000000      -0.41833073
2
Properties=species:S:1:pos:R:3:forces:R:3 energy=-0.8163103134263642 pbc="F F F"
Nd       0.00000000       0.00000000       0.00000000       0.00000000       0.00000000       0.39513382
Nd       0.00000000       0.00000000       5.29454545       0.00000000       0.00000000      -0.39513382
2
Properties=species:S:1:pos:R:3:forces:R:3 energy=-0.7938227092393816 pbc="F F F"
Nd       0.00000000       0.00000000       0.00000000       0.00000000       0.00000000       0.36936763
Nd       0.00000000       0.00000000       5.35333333       0.00000000       0.00000000      -0.36936763
2
Properties=species:S:1:pos:R:3:forces:R:3 energy=-0.7729518001528003 pbc="F F F"
Nd       0.00000000       0.00000000       0.00000000       0.00000000       0.00000000       0.34008855
Nd       0.00000000       0.00000000       5.41212121       0.00000000       0.00000000      -0.34008855
2
Properties=species:S:1:pos:R:3:forces:R:3 energy=-0.7539119612042995 pbc="F F F"
Nd       0.00000000       0.00000000       0.00000000       0.00000000       0.00000000       0.30696735
Nd       0.00000000       0.00000000       5.47090909       0.00000000       0.00000000      -0.30696735
2
Properties=species:S:1:pos:R:3:forces:R:3 energy=-0.7369256037232182 pbc="F F F"
Nd       0.00000000       0.00000000       0.00000000       0.00000000       0.00000000       0.27037644
Nd       0.00000000       0.00000000       5.52969697       0.00000000       0.00000000      -0.27037644
2
Properties=species:S:1:pos:R:3:forces:R:3 energy=-0.722169521062816 pbc="F F F"
Nd       0.00000000       0.00000000       0.00000000       0.00000000       0.00000000       0.23137596
Nd       0.00000000       0.00000000       5.58848485       0.00000000       0.00000000      -0.23137596
2
Properties=species:S:1:pos:R:3:forces:R:3 energy=-0.7097424498342733 pbc="F F F"
Nd       0.00000000       0.00000000       0.00000000       0.00000000       0.00000000       0.19162752
Nd       0.00000000       0.00000000       5.64727273       0.00000000       0.00000000      -0.19162752
2
Properties=species:S:1:pos:R:3:forces:R:3 energy=-0.6996183666236595 pbc="F F F"
Nd       0.00000000       0.00000000       0.00000000       0.00000000       0.00000000       0.15308902
Nd       0.00000000       0.00000000       5.70606061       0.00000000       0.00000000      -0.15308902
2
Properties=species:S:1:pos:R:3:forces:R:3 energy=-0.691666506233087 pbc="F F F"
Nd       0.00000000       0.00000000       0.00000000       0.00000000       0.00000000       0.11783405
Nd       0.00000000       0.00000000       5.76484848       0.00000000       0.00000000      -0.11783405
2
Properties=species:S:1:pos:R:3:forces:R:3 energy=-0.6856544562024889 pbc="F F F"
Nd       0.00000000       0.00000000       0.00000000       0.00000000       0.00000000       0.08780970
Nd       0.00000000       0.00000000       5.82363636       0.00000000       0.00000000      -0.08780970
2
Properties=species:S:1:pos:R:3:forces:R:3 energy=-0.6812163483521361 pbc="F F F"
Nd       0.00000000       0.00000000       0.00000000       0.00000000       0.00000000       0.06468777
Nd       0.00000000       0.00000000       5.88242424       0.00000000       0.00000000      -0.06468777
2
Properties=species:S:1:pos:R:3:forces:R:3 energy=-0.6778904298837309 pbc="F F F"
Nd       0.00000000       0.00000000       0.00000000       0.00000000       0.00000000       0.04979648
Nd       0.00000000       0.00000000       5.94121212       0.00000000       0.00000000      -0.04979648
2
Properties=species:S:1:pos:R:3:forces:R:3 energy=-0.6751776080608068 pbc="F F F"
Nd       0.00000000       0.00000000       0.00000000       0.00000000       0.00000000       0.04415693
Nd       0.00000000       0.00000000       6.00000000       0.00000000       0.00000000      -0.04415693
