2
Properties=species:S:1:pos:R:3:forces:R:3 energy=845.3797956207059 pbc="F F F"
Ne       0.00000000       0.00000000       0.00000000       0.00000000       0.00000000  -11828.65234375
Ne       0.00000000       0.00000000       0.18000000       0.00000000       0.00000000   11828.65234375
2
Properties=species:S:1:pos:R:3:forces:R:3 energy=398.2201886871121 pbc="F F F"
Ne       0.00000000       0.00000000       0.00000000       0.00000000       0.00000000   -4697.80810547
Ne       0.00000000       0.00000000       0.23878788       0.00000000       0.00000000    4697.80810547
2
Properties=species:S:1:pos:R:3:forces:R:3 energy=207.83072335666475 pbc="F F F"
Ne       0.00000000       0.00000000       0.00000000       0.00000000       0.00000000   -2168.06665039
Ne       0.00000000       0.00000000       0.29757576       0.00000000       0.00000000    2168.06665039
2
Properties=species:S:1:pos:R:3:forces:R:3 energy=115.62508829021972 pbc="F F F"
Ne       0.00000000       0.00000000       0.00000000       0.00000000       0.00000000   -1108.50573730
Ne       0.00000000       0.00000000       0.35636364       0.00000000       0.00000000    1108.50573730
2
Properties=species:S:1:pos:R:3:forces:R:3 energy=66.86021098038725 pbc="F F F"
Ne       0.00000000       0.00000000       0.00000000       0.00000000       0.00000000    -608.23925781
Ne       0.00000000       0.00000000       0.41515152       0.00000000       0.00000000     608.23925781
2
Properties=species:S:1:pos:R:3:forces:R:3 energy=39.47707043503336 pbc="F F F"
Ne       0.00000000       0.00000000       0.00000000       0.00000000       0.00000000    -349.96945190
Ne       0.00000000       0.00000000       0.47393939       0.00000000       0.00000000     349.96945190
2
Properties=species:S:1:pos:R:3:forces:R:3 energy=23.483679432892103 pbc="F F F"
Ne       0.00000000       0.00000000       0.00000000       0.00000000       0.00000000    -207.52246094
Ne       0.00000000       0.00000000       0.53272727       0.00000000       0.00000000     207.52246094
2
Properties=species:S:1:pos:R:3:forces:R:3 energy=13.918029507605588 pbc="F F F"
Ne       0.00000000       0.00000000       0.00000000       0.00000000       0.00000000    -125.11964417
Ne       0.00000000       0.00000000       0.59151515       0.00000000       0.00000000     125.11964417
2
Properties=species:S:1:pos:R:3:forces:R:3 energy=8.13124639019613 pbc="F F F"
Ne       0.00000000       0.00000000       0.00000000       0.00000000       0.00000000     -75.84860229
Ne       0.00000000       0.00000000       0.65030303       0.00000000       0.00000000      75.84860229
2
Properties=species:S:1:pos:R:3:forces:R:3 energy=4.628166180149268 pbc="F F F"
Ne       0.00000000       0.00000000       0.00000000       0.00000000       0.00000000     -45.75297928
Ne       0.00000000       0.00000000       0.70909091       0.00000000       0.00000000      45.75297928
2
Properties=species:S:1:pos:R:3:forces:R:3 energy=2.528451425681254 pbc="F F F"
Ne       0.00000000       0.00000000       0.00000000       0.00000000       0.00000000     -27.15836143
Ne       0.00000000       0.00000000       0.76787879       0.00000000       0.00000000      27.15836143
2
Properties=species:S:1:pos:R:3:forces:R:3 energy=1.2973537230538847 pbc="F F F"
Ne       0.00000000       0.00000000       0.00000000       0.00000000       0.00000000     -15.64484978
Ne       0.00000000       0.00000000       0.82666667       0.00000000       0.00000000      15.64484978
2
Properties=species:S:1:pos:R:3:forces:R:3 energy=0.602582342845608 pbc="F F F"
Ne       0.00000000       0.00000000       0.00000000       0.00000000       0.00000000      -8.57397366
Ne       0.00000000       0.00000000       0.88545455       0.00000000       0.00000000       8.57397366
2
Properties=species:S:1:pos:R:3:forces:R:3 energy=0.23430521600825419 pbc="F F F"
Ne       0.00000000       0.00000000       0.00000000       0.00000000       0.00000000      -4.32712269
Ne       0.00000000       0.00000000       0.94424242       0.00000000       0.00000000       4.32712269
2
Properties=species:S:1:pos:R:3:forces:R:3 energy=0.05858699751027052 pbc="F F F"
Ne       0.00000000       0.00000000       0.00000000       0.00000000       0.00000000      -1.88990736
Ne       0.00000000       0.00000000       1.00303030       0.00000000       0.00000000       1.88990736
2
Properties=species:S:1:pos:R:3:forces:R:3 energy=-0.0105361901415082 pbc="F F F"
Ne       0.00000000       0.00000000       0.00000000       0.00000000       0.00000000      -0.61502165
Ne       0.00000000       0.00000000       1.06181818       0.00000000       0.00000000       0.61502165
2
Properties=species:S:1:pos:R:3:forces:R:3 energy=-0.028188847350735922 pbc="F F F"
Ne       0.00000000       0.00000000       0.00000000       0.00000000       0.00000000      -0.08285264
Ne       0.00000000       0.00000000       1.12060606       0.00000000       0.00000000       0.08285264
2
Properties=species:S:1:pos:R:3:forces:R:3 energy=-0.029244268788078603 pbc="F F F"
Ne       0.00000000       0.00000000       0.00000000       0.00000000       0.00000000       0.00004341
Ne       0.00000000       0.00000000       1.17939394       0.00000000       0.00000000      -0.00004341
2
Properties=species:S:1:pos:R:3:forces:R:3 energy=-0.02924137102276876 pbc="F F F"
Ne       0.00000000       0.00000000       0.00000000       0.00000000       0.00000000       0.00005558
Ne       0.00000000       0.00000000       1.23818182       0.00000000       0.00000000      -0.00005558
2
Properties=species:S:1:pos:R:3:forces:R:3 energy=-0.029237683281810777 pbc="F F F"
Ne       0.00000000       0.00000000       0.00000000       0.00000000       0.00000000       0.00007034
Ne       0.00000000       0.00000000       1.29696970       0.00000000       0.00000000      -0.00007034
2
Properties=species:S:1:pos:R:3:forces:R:3 energy=-0.02923304163040849 pbc="F F F"
Ne       0.00000000       0.00000000       0.00000000       0.00000000       0.00000000       0.00008810
Ne       0.00000000       0.00000000       1.35575758       0.00000000       0.00000000      -0.00008810
2
Properties=species:S:1:pos:R:3:forces:R:3 energy=-0.029227257979121866 pbc="F F F"
Ne       0.00000000       0.00000000       0.00000000       0.00000000       0.00000000       0.00010927
Ne       0.00000000       0.00000000       1.41454545       0.00000000       0.00000000      -0.00010927
2
Properties=species:S:1:pos:R:3:forces:R:3 energy=-0.02922011810397815 pbc="F F F"
Ne       0.00000000       0.00000000       0.00000000       0.00000000       0.00000000       0.00013430
Ne       0.00000000       0.00000000       1.47333333       0.00000000       0.00000000      -0.00013430
2
Properties=species:S:1:pos:R:3:forces:R:3 energy=-0.029211382042449635 pbc="F F F"
Ne       0.00000000       0.00000000       0.00000000       0.00000000       0.00000000       0.00016367
Ne       0.00000000       0.00000000       1.53212121       0.00000000       0.00000000      -0.00016367
2
Properties=species:S:1:pos:R:3:forces:R:3 energy=-0.029200780529653744 pbc="F F F"
Ne       0.00000000       0.00000000       0.00000000       0.00000000       0.00000000       0.00019785
Ne       0.00000000       0.00000000       1.59090909       0.00000000       0.00000000      -0.00019785
2
Properties=species:S:1:pos:R:3:forces:R:3 energy=-0.029188015394330802 pbc="F F F"
Ne       0.00000000       0.00000000       0.00000000       0.00000000       0.00000000       0.00023735
Ne       0.00000000       0.00000000       1.64969697       0.00000000       0.00000000      -0.00023735
2
Properties=species:S:1:pos:R:3:forces:R:3 energy=-0.02917276035079957 pbc="F F F"
Ne       0.00000000       0.00000000       0.00000000       0.00000000       0.00000000       0.00028264
Ne       0.00000000       0.00000000       1.70848485       0.00000000       0.00000000      -0.00028264
2
Properties=species:S:1:pos:R:3:forces:R:3 energy=-0.029154660602979474 pbc="F F F"
Ne       0.00000000       0.00000000       0.00000000       0.00000000       0.00000000       0.00033421
Ne       0.00000000       0.00000000       1.76727273       0.00000000       0.00000000      -0.00033421
2
Properties=species:S:1:pos:R:3:forces:R:3 energy=-0.02913333442830169 pbc="F F F"
Ne       0.00000000       0.00000000       0.00000000       0.00000000       0.00000000       0.00039248
Ne       0.00000000       0.00000000       1.82606061       0.00000000       0.00000000      -0.00039248
2
Properties=species:S:1:pos:R:3:forces:R:3 energy=-0.02910837634553128 pbc="F F F"
Ne       0.00000000       0.00000000       0.00000000       0.00000000       0.00000000       0.00045781
Ne       0.00000000       0.00000000       1.88484848       0.00000000       0.00000000      -0.00045781
2
Properties=species:S:1:pos:R:3:forces:R:3 energy=-0.02907936265845595 pbc="F F F"
Ne       0.00000000       0.00000000       0.00000000       0.00000000       0.00000000       0.00053050
Ne       0.00000000       0.00000000       1.94363636       0.00000000       0.00000000      -0.00053050
2
Properties=species:S:1:pos:R:3:forces:R:3 energy=-0.029045855019685984 pbc="F F F"
Ne       0.00000000       0.00000000       0.00000000       0.00000000       0.00000000       0.00061070
Ne       0.00000000       0.00000000       2.00242424       0.00000000       0.00000000      -0.00061070
2
Properties=species:S:1:pos:R:3:forces:R:3 energy=-0.029007410330098432 pbc="F F F"
Ne       0.00000000       0.00000000       0.00000000       0.00000000       0.00000000       0.00069845
Ne       0.00000000       0.00000000       2.06121212       0.00000000       0.00000000      -0.00069845
2
Properties=species:S:1:pos:R:3:forces:R:3 energy=-0.02896358945034804 pbc="F F F"
Ne       0.00000000       0.00000000       0.00000000       0.00000000       0.00000000       0.00079358
Ne       0.00000000       0.00000000       2.12000000       0.00000000       0.00000000      -0.00079358
2
Properties=species:S:1:pos:R:3:forces:R:3 energy=-0.02891396710031144 pbc="F F F"
Ne       0.00000000       0.00000000       0.00000000       0.00000000       0.00000000       0.00089572
Ne       0.00000000       0.00000000       2.17878788       0.00000000       0.00000000      -0.00089572
2
Properties=species:S:1:pos:R:3:forces:R:3 energy=-0.028858148886131214 pbc="F F F"
Ne       0.00000000       0.00000000       0.00000000       0.00000000       0.00000000       0.00100426
Ne       0.00000000       0.00000000       2.23757576       0.00000000       0.00000000      -0.00100426
2
Properties=species:S:1:pos:R:3:forces:R:3 energy=-0.028795781595637865 pbc="F F F"
Ne       0.00000000       0.00000000       0.00000000       0.00000000       0.00000000       0.00111832
Ne       0.00000000       0.00000000       2.29636364       0.00000000       0.00000000      -0.00111832
2
Properties=species:S:1:pos:R:3:forces:R:3 energy=-0.02872657616506039 pbc="F F F"
Ne       0.00000000       0.00000000       0.00000000       0.00000000       0.00000000       0.00123671
Ne       0.00000000       0.00000000       2.35515152       0.00000000       0.00000000      -0.00123671
2
Properties=species:S:1:pos:R:3:forces:R:3 energy=-0.02865031797444827 pbc="F F F"
Ne       0.00000000       0.00000000       0.00000000       0.00000000       0.00000000       0.00135797
Ne       0.00000000       0.00000000       2.41393939       0.00000000       0.00000000      -0.00135797
2
Properties=species:S:1:pos:R:3:forces:R:3 energy=-0.028566890210359797 pbc="F F F"
Ne       0.00000000       0.00000000       0.00000000       0.00000000       0.00000000       0.00148031
Ne       0.00000000       0.00000000       2.47272727       0.00000000       0.00000000      -0.00148031
2
Properties=species:S:1:pos:R:3:forces:R:3 energy=-0.028476288517039514 pbc="F F F"
Ne       0.00000000       0.00000000       0.00000000       0.00000000       0.00000000       0.00160169
Ne       0.00000000       0.00000000       2.53151515       0.00000000       0.00000000      -0.00160169
2
Properties=species:S:1:pos:R:3:forces:R:3 energy=-0.02837863327172905 pbc="F F F"
Ne       0.00000000       0.00000000       0.00000000       0.00000000       0.00000000       0.00171985
Ne       0.00000000       0.00000000       2.59030303       0.00000000       0.00000000      -0.00171985
2
Properties=species:S:1:pos:R:3:forces:R:3 energy=-0.028274185423777836 pbc="F F F"
Ne       0.00000000       0.00000000       0.00000000       0.00000000       0.00000000       0.00183236
Ne       0.00000000       0.00000000       2.64909091       0.00000000       0.00000000      -0.00183236
2
Properties=species:S:1:pos:R:3:forces:R:3 energy=-0.028163352434309657 pbc="F F F"
Ne       0.00000000       0.00000000       0.00000000       0.00000000       0.00000000       0.00193671
Ne       0.00000000       0.00000000       2.70787879       0.00000000       0.00000000      -0.00193671
2
Properties=species:S:1:pos:R:3:forces:R:3 energy=-0.028046684118456067 pbc="F F F"
Ne       0.00000000       0.00000000       0.00000000       0.00000000       0.00000000       0.00203045
Ne       0.00000000       0.00000000       2.76666667       0.00000000       0.00000000      -0.00203045
2
Properties=species:S:1:pos:R:3:forces:R:3 energy=-0.027924872843345272 pbc="F F F"
Ne       0.00000000       0.00000000       0.00000000       0.00000000       0.00000000       0.00211131
Ne       0.00000000       0.00000000       2.82545455       0.00000000       0.00000000      -0.00211131
2
Properties=species:S:1:pos:R:3:forces:R:3 energy=-0.02779873729301364 pbc="F F F"
Ne       0.00000000       0.00000000       0.00000000       0.00000000       0.00000000       0.00217728
Ne       0.00000000       0.00000000       2.88424242       0.00000000       0.00000000      -0.00217728
2
Properties=species:S:1:pos:R:3:forces:R:3 energy=-0.027669199699683993 pbc="F F F"
Ne       0.00000000       0.00000000       0.00000000       0.00000000       0.00000000       0.00222680
Ne       0.00000000       0.00000000       2.94303030       0.00000000       0.00000000      -0.00222680
2
Properties=species:S:1:pos:R:3:forces:R:3 energy=-0.027537263075043925 pbc="F F F"
Ne       0.00000000       0.00000000       0.00000000       0.00000000       0.00000000       0.00225881
Ne       0.00000000       0.00000000       3.00181818       0.00000000       0.00000000      -0.00225881
2
Properties=species:S:1:pos:R:3:forces:R:3 energy=-0.027403972800402257 pbc="F F F"
Ne       0.00000000       0.00000000       0.00000000       0.00000000       0.00000000       0.00227280
Ne       0.00000000       0.00000000       3.06060606       0.00000000       0.00000000      -0.00227280
2
Properties=species:S:1:pos:R:3:forces:R:3 energy=-0.02727038732433418 pbc="F F F"
Ne       0.00000000       0.00000000       0.00000000       0.00000000       0.00000000       0.00226890
Ne       0.00000000       0.00000000       3.11939394       0.00000000       0.00000000      -0.00226890
2
Properties=species:S:1:pos:R:3:forces:R:3 energy=-0.027137541930715416 pbc="F F F"
Ne       0.00000000       0.00000000       0.00000000       0.00000000       0.00000000       0.00224780
Ne       0.00000000       0.00000000       3.17818182       0.00000000       0.00000000      -0.00224780
2
Properties=species:S:1:pos:R:3:forces:R:3 energy=-0.02700641508061192 pbc="F F F"
Ne       0.00000000       0.00000000       0.00000000       0.00000000       0.00000000       0.00221068
Ne       0.00000000       0.00000000       3.23696970       0.00000000       0.00000000      -0.00221068
2
Properties=species:S:1:pos:R:3:forces:R:3 energy=-0.026877901485791597 pbc="F F F"
Ne       0.00000000       0.00000000       0.00000000       0.00000000       0.00000000       0.00215917
Ne       0.00000000       0.00000000       3.29575758       0.00000000       0.00000000      -0.00215917
2
Properties=species:S:1:pos:R:3:forces:R:3 energy=-0.026752793299780323 pbc="F F F"
Ne       0.00000000       0.00000000       0.00000000       0.00000000       0.00000000       0.00209520
Ne       0.00000000       0.00000000       3.35454545       0.00000000       0.00000000      -0.00209520
2
Properties=species:S:1:pos:R:3:forces:R:3 energy=-0.026631759329029083 pbc="F F F"
Ne       0.00000000       0.00000000       0.00000000       0.00000000       0.00000000       0.00202087
Ne       0.00000000       0.00000000       3.41333333       0.00000000       0.00000000      -0.00202087
2
Properties=species:S:1:pos:R:3:forces:R:3 energy=-0.026515348002747244 pbc="F F F"
Ne       0.00000000       0.00000000       0.00000000       0.00000000       0.00000000       0.00193833
Ne       0.00000000       0.00000000       3.47212121       0.00000000       0.00000000      -0.00193833
2
Properties=species:S:1:pos:R:3:forces:R:3 energy=-0.026403978166419432 pbc="F F F"
Ne       0.00000000       0.00000000       0.00000000       0.00000000       0.00000000       0.00184972
Ne       0.00000000       0.00000000       3.53090909       0.00000000       0.00000000      -0.00184972
2
Properties=species:S:1:pos:R:3:forces:R:3 energy=-0.026297946407394242 pbc="F F F"
Ne       0.00000000       0.00000000       0.00000000       0.00000000       0.00000000       0.00175702
Ne       0.00000000       0.00000000       3.58969697       0.00000000       0.00000000      -0.00175702
2
Properties=species:S:1:pos:R:3:forces:R:3 energy=-0.0261974391322062 pbc="F F F"
Ne       0.00000000       0.00000000       0.00000000       0.00000000       0.00000000       0.00166206
Ne       0.00000000       0.00000000       3.64848485       0.00000000       0.00000000      -0.00166206
2
Properties=species:S:1:pos:R:3:forces:R:3 energy=-0.02610254167406441 pbc="F F F"
Ne       0.00000000       0.00000000       0.00000000       0.00000000       0.00000000       0.00156641
Ne       0.00000000       0.00000000       3.70727273       0.00000000       0.00000000      -0.00156641
2
Properties=species:S:1:pos:R:3:forces:R:3 energy=-0.026013253340007782 pbc="F F F"
Ne       0.00000000       0.00000000       0.00000000       0.00000000       0.00000000       0.00147144
Ne       0.00000000       0.00000000       3.76606061       0.00000000       0.00000000      -0.00147144
2
Properties=species:S:1:pos:R:3:forces:R:3 energy=-0.025929500874149143 pbc="F F F"
Ne       0.00000000       0.00000000       0.00000000       0.00000000       0.00000000       0.00137826
Ne       0.00000000       0.00000000       3.82484848       0.00000000       0.00000000      -0.00137826
2
Properties=species:S:1:pos:R:3:forces:R:3 energy=-0.025851151524941603 pbc="F F F"
Ne       0.00000000       0.00000000       0.00000000       0.00000000       0.00000000       0.00128773
Ne       0.00000000       0.00000000       3.88363636       0.00000000       0.00000000      -0.00128773
2
Properties=species:S:1:pos:R:3:forces:R:3 energy=-0.025778028884289303 pbc="F F F"
Ne       0.00000000       0.00000000       0.00000000       0.00000000       0.00000000       0.00120055
Ne       0.00000000       0.00000000       3.94242424       0.00000000       0.00000000      -0.00120055
2
Properties=species:S:1:pos:R:3:forces:R:3 energy=-0.02570992140106942 pbc="F F F"
Ne       0.00000000       0.00000000       0.00000000       0.00000000       0.00000000       0.00111719
Ne       0.00000000       0.00000000       4.00121212       0.00000000       0.00000000      -0.00111719
2
Properties=species:S:1:pos:R:3:forces:R:3 energy=-0.02564659361700137 pbc="F F F"
Ne       0.00000000       0.00000000       0.00000000       0.00000000       0.00000000       0.00103797
Ne       0.00000000       0.00000000       4.06000000       0.00000000       0.00000000      -0.00103797
2
Properties=species:S:1:pos:R:3:forces:R:3 energy=-0.02558779581860489 pbc="F F F"
Ne       0.00000000       0.00000000       0.00000000       0.00000000       0.00000000       0.00096310
Ne       0.00000000       0.00000000       4.11878788       0.00000000       0.00000000      -0.00096310
2
Properties=species:S:1:pos:R:3:forces:R:3 energy=-0.025533269927369363 pbc="F F F"
Ne       0.00000000       0.00000000       0.00000000       0.00000000       0.00000000       0.00089265
Ne       0.00000000       0.00000000       4.17757576       0.00000000       0.00000000      -0.00089265
2
Properties=species:S:1:pos:R:3:forces:R:3 energy=-0.025482755488917565 pbc="F F F"
Ne       0.00000000       0.00000000       0.00000000       0.00000000       0.00000000       0.00082662
Ne       0.00000000       0.00000000       4.23636364       0.00000000       0.00000000      -0.00082662
2
Properties=species:S:1:pos:R:3:forces:R:3 energy=-0.025435994078258334 pbc="F F F"
Ne       0.00000000       0.00000000       0.00000000       0.00000000       0.00000000       0.00076493
Ne       0.00000000       0.00000000       4.29515152       0.00000000       0.00000000      -0.00076493
2
Properties=species:S:1:pos:R:3:forces:R:3 energy=-0.025392735288950318 pbc="F F F"
Ne       0.00000000       0.00000000       0.00000000       0.00000000       0.00000000       0.00070746
Ne       0.00000000       0.00000000       4.35393939       0.00000000       0.00000000      -0.00070746
2
Properties=species:S:1:pos:R:3:forces:R:3 energy=-0.02535273500069924 pbc="F F F"
Ne       0.00000000       0.00000000       0.00000000       0.00000000       0.00000000       0.00065404
Ne       0.00000000       0.00000000       4.41272727       0.00000000       0.00000000      -0.00065404
2
Properties=species:S:1:pos:R:3:forces:R:3 energy=-0.025315759586621685 pbc="F F F"
Ne       0.00000000       0.00000000       0.00000000       0.00000000       0.00000000       0.00060450
Ne       0.00000000       0.00000000       4.47151515       0.00000000       0.00000000      -0.00060450
2
Properties=species:S:1:pos:R:3:forces:R:3 energy=-0.025281588487100607 pbc="F F F"
Ne       0.00000000       0.00000000       0.00000000       0.00000000       0.00000000       0.00055862
Ne       0.00000000       0.00000000       4.53030303       0.00000000       0.00000000      -0.00055862
2
Properties=species:S:1:pos:R:3:forces:R:3 energy=-0.025250011982410368 pbc="F F F"
Ne       0.00000000       0.00000000       0.00000000       0.00000000       0.00000000       0.00051619
Ne       0.00000000       0.00000000       4.58909091       0.00000000       0.00000000      -0.00051619
2
Properties=species:S:1:pos:R:3:forces:R:3 energy=-0.02522083324685141 pbc="F F F"
Ne       0.00000000       0.00000000       0.00000000       0.00000000       0.00000000       0.00047700
Ne       0.00000000       0.00000000       4.64787879       0.00000000       0.00000000      -0.00047700
2
Properties=species:S:1:pos:R:3:forces:R:3 energy=-0.025193868596236374 pbc="F F F"
Ne       0.00000000       0.00000000       0.00000000       0.00000000       0.00000000       0.00044084
Ne       0.00000000       0.00000000       4.70666667       0.00000000       0.00000000      -0.00044084
2
Properties=species:S:1:pos:R:3:forces:R:3 energy=-0.02516894625045957 pbc="F F F"
Ne       0.00000000       0.00000000       0.00000000       0.00000000       0.00000000       0.00040749
Ne       0.00000000       0.00000000       4.76545455       0.00000000       0.00000000      -0.00040749
2
Properties=species:S:1:pos:R:3:forces:R:3 energy=-0.025145906704726124 pbc="F F F"
Ne       0.00000000       0.00000000       0.00000000       0.00000000       0.00000000       0.00037675
Ne       0.00000000       0.00000000       4.82424242       0.00000000       0.00000000      -0.00037675
2
Properties=species:S:1:pos:R:3:forces:R:3 energy=-0.02512460250681449 pbc="F F F"
Ne       0.00000000       0.00000000       0.00000000       0.00000000       0.00000000       0.00034843
Ne       0.00000000       0.00000000       4.88303030       0.00000000       0.00000000      -0.00034843
2
Properties=species:S:1:pos:R:3:forces:R:3 energy=-0.0251048964751765 pbc="F F F"
Ne       0.00000000       0.00000000       0.00000000       0.00000000       0.00000000       0.00032234
Ne       0.00000000       0.00000000       4.94181818       0.00000000       0.00000000      -0.00032234
2
Properties=species:S:1:pos:R:3:forces:R:3 energy=-0.025086662094915117 pbc="F F F"
Ne       0.00000000       0.00000000       0.00000000       0.00000000       0.00000000       0.00029833
Ne       0.00000000       0.00000000       5.00060606       0.00000000       0.00000000      -0.00029833
2
Properties=species:S:1:pos:R:3:forces:R:3 energy=-0.025069783220801122 pbc="F F F"
Ne       0.00000000       0.00000000       0.00000000       0.00000000       0.00000000       0.00027621
Ne       0.00000000       0.00000000       5.05939394       0.00000000       0.00000000      -0.00027621
2
Properties=species:S:1:pos:R:3:forces:R:3 energy=-0.025054152270624533 pbc="F F F"
Ne       0.00000000       0.00000000       0.00000000       0.00000000       0.00000000       0.00025585
Ne       0.00000000       0.00000000       5.11818182       0.00000000       0.00000000      -0.00025585
2
Properties=species:S:1:pos:R:3:forces:R:3 energy=-0.025039670423183506 pbc="F F F"
Ne       0.00000000       0.00000000       0.00000000       0.00000000       0.00000000       0.00023709
Ne       0.00000000       0.00000000       5.17696970       0.00000000       0.00000000      -0.00023709
2
Properties=species:S:1:pos:R:3:forces:R:3 energy=-0.02502624680158017 pbc="F F F"
Ne       0.00000000       0.00000000       0.00000000       0.00000000       0.00000000       0.00021982
Ne       0.00000000       0.00000000       5.23575758       0.00000000       0.00000000      -0.00021982
2
Properties=species:S:1:pos:R:3:forces:R:3 energy=-0.025013797941125505 pbc="F F F"
Ne       0.00000000       0.00000000       0.00000000       0.00000000       0.00000000       0.00020391
Ne       0.00000000       0.00000000       5.29454545       0.00000000       0.00000000      -0.00020391
2
Properties=species:S:1:pos:R:3:forces:R:3 energy=-0.02500224728199284 pbc="F F F"
Ne       0.00000000       0.00000000       0.00000000       0.00000000       0.00000000       0.00018925
Ne       0.00000000       0.00000000       5.35333333       0.00000000       0.00000000      -0.00018925
2
Properties=species:S:1:pos:R:3:forces:R:3 energy=-0.024991524265893548 pbc="F F F"
Ne       0.00000000       0.00000000       0.00000000       0.00000000       0.00000000       0.00017574
Ne       0.00000000       0.00000000       5.41212121       0.00000000       0.00000000      -0.00017574
2
Properties=species:S:1:pos:R:3:forces:R:3 energy=-0.024981564286579837 pbc="F F F"
Ne       0.00000000       0.00000000       0.00000000       0.00000000       0.00000000       0.00016328
Ne       0.00000000       0.00000000       5.47090909       0.00000000       0.00000000      -0.00016328
2
Properties=species:S:1:pos:R:3:forces:R:3 energy=-0.024972308021632268 pbc="F F F"
Ne       0.00000000       0.00000000       0.00000000       0.00000000       0.00000000       0.00015178
Ne       0.00000000       0.00000000       5.52969697       0.00000000       0.00000000      -0.00015178
2
Properties=species:S:1:pos:R:3:forces:R:3 energy=-0.024963700863241702 pbc="F F F"
Ne       0.00000000       0.00000000       0.00000000       0.00000000       0.00000000       0.00014118
Ne       0.00000000       0.00000000       5.58848485       0.00000000       0.00000000      -0.00014118
2
Properties=species:S:1:pos:R:3:forces:R:3 energy=-0.02495569296770653 pbc="F F F"
Ne       0.00000000       0.00000000       0.00000000       0.00000000       0.00000000       0.00013139
Ne       0.00000000       0.00000000       5.64727273       0.00000000       0.00000000      -0.00013139
2
Properties=species:S:1:pos:R:3:forces:R:3 energy=-0.024948238364482695 pbc="F F F"
Ne       0.00000000       0.00000000       0.00000000       0.00000000       0.00000000       0.00012234
Ne       0.00000000       0.00000000       5.70606061       0.00000000       0.00000000      -0.00012234
2
Properties=species:S:1:pos:R:3:forces:R:3 energy=-0.02494129473344618 pbc="F F F"
Ne       0.00000000       0.00000000       0.00000000       0.00000000       0.00000000       0.00011399
Ne       0.00000000       0.00000000       5.76484848       0.00000000       0.00000000      -0.00011399
2
Properties=species:S:1:pos:R:3:forces:R:3 energy=-0.024934823652379146 pbc="F F F"
Ne       0.00000000       0.00000000       0.00000000       0.00000000       0.00000000       0.00010626
Ne       0.00000000       0.00000000       5.82363636       0.00000000       0.00000000      -0.00010626
2
Properties=species:S:1:pos:R:3:forces:R:3 energy=-0.024928789378100828 pbc="F F F"
Ne       0.00000000       0.00000000       0.00000000       0.00000000       0.00000000       0.00009912
Ne       0.00000000       0.00000000       5.88242424       0.00000000       0.00000000      -0.00009912
2
Properties=species:S:1:pos:R:3:forces:R:3 energy=-0.02492315923007102 pbc="F F F"
Ne       0.00000000       0.00000000       0.00000000       0.00000000       0.00000000       0.00009251
Ne       0.00000000       0.00000000       5.94121212       0.00000000       0.00000000      -0.00009251
2
Properties=species:S:1:pos:R:3:forces:R:3 energy=-0.02491790322534807 pbc="F F F"
Ne       0.00000000       0.00000000       0.00000000       0.00000000       0.00000000       0.00008638
Ne       0.00000000       0.00000000       6.00000000       0.00000000       0.00000000      -0.00008638
