2
Properties=species:S:1:pos:R:3:forces:R:3 energy=17569.153779462493 pbc="F F F"
Ni       0.00000000       0.00000000       0.00000000       0.00000000       0.00000000 -396975.81250000
Ni       0.00000000       0.00000000       0.10000000       0.00000000       0.00000000  396975.81250000
2
Properties=species:S:1:pos:R:3:forces:R:3 energy=5529.541963056244 pbc="F F F"
Ni       0.00000000       0.00000000       0.00000000       0.00000000       0.00000000  -93462.76562500
Ni       0.00000000       0.00000000       0.15959596       0.00000000       0.00000000   93462.76562500
2
Properties=species:S:1:pos:R:3:forces:R:3 energy=2226.4045118843687 pbc="F F F"
Ni       0.00000000       0.00000000       0.00000000       0.00000000       0.00000000  -30956.55078125
Ni       0.00000000       0.00000000       0.21919192       0.00000000       0.00000000   30956.55078125
2
Properties=species:S:1:pos:R:3:forces:R:3 energy=1029.6560987984312 pbc="F F F"
Ni       0.00000000       0.00000000       0.00000000       0.00000000       0.00000000  -12475.06054688
Ni       0.00000000       0.00000000       0.27878788       0.00000000       0.00000000   12475.06054688
2
Properties=species:S:1:pos:R:3:forces:R:3 energy=518.9721998726501 pbc="F F F"
Ni       0.00000000       0.00000000       0.00000000       0.00000000       0.00000000   -5682.53320312
Ni       0.00000000       0.00000000       0.33838384       0.00000000       0.00000000    5682.53320312
2
Properties=species:S:1:pos:R:3:forces:R:3 energy=277.4443678477357 pbc="F F F"
Ni       0.00000000       0.00000000       0.00000000       0.00000000       0.00000000   -2802.91210938
Ni       0.00000000       0.00000000       0.39797980       0.00000000       0.00000000    2802.91210938
2
Properties=species:S:1:pos:R:3:forces:R:3 energy=155.2047743545476 pbc="F F F"
Ni       0.00000000       0.00000000       0.00000000       0.00000000       0.00000000   -1459.97338867
Ni       0.00000000       0.00000000       0.45757576       0.00000000       0.00000000    1459.97338867
2
Properties=species:S:1:pos:R:3:forces:R:3 energy=90.31037282959721 pbc="F F F"
Ni       0.00000000       0.00000000       0.00000000       0.00000000       0.00000000    -792.17639160
Ni       0.00000000       0.00000000       0.51717172       0.00000000       0.00000000     792.17639160
2
Properties=species:S:1:pos:R:3:forces:R:3 energy=54.50051264445453 pbc="F F F"
Ni       0.00000000       0.00000000       0.00000000       0.00000000       0.00000000    -446.59942627
Ni       0.00000000       0.00000000       0.57676768       0.00000000       0.00000000     446.59942627
2
Properties=species:S:1:pos:R:3:forces:R:3 energy=33.835786463158044 pbc="F F F"
Ni       0.00000000       0.00000000       0.00000000       0.00000000       0.00000000    -266.80633545
Ni       0.00000000       0.00000000       0.63636364       0.00000000       0.00000000     266.80633545
2
Properties=species:S:1:pos:R:3:forces:R:3 energy=20.906509157155696 pbc="F F F"
Ni       0.00000000       0.00000000       0.00000000       0.00000000       0.00000000    -178.20777893
Ni       0.00000000       0.00000000       0.69595960       0.00000000       0.00000000     178.20777893
2
Properties=species:S:1:pos:R:3:forces:R:3 energy=11.789430559761453 pbc="F F F"
Ni       0.00000000       0.00000000       0.00000000       0.00000000       0.00000000    -129.14161682
Ni       0.00000000       0.00000000       0.75555556       0.00000000       0.00000000     129.14161682
2
Properties=species:S:1:pos:R:3:forces:R:3 energy=5.626125549601384 pbc="F F F"
Ni       0.00000000       0.00000000       0.00000000       0.00000000       0.00000000     -77.44355011
Ni       0.00000000       0.00000000       0.81515152       0.00000000       0.00000000      77.44355011
2
Properties=species:S:1:pos:R:3:forces:R:3 energy=2.5424939532390645 pbc="F F F"
Ni       0.00000000       0.00000000       0.00000000       0.00000000       0.00000000     -25.81869888
Ni       0.00000000       0.00000000       0.87474747       0.00000000       0.00000000      25.81869888
2
Properties=species:S:1:pos:R:3:forces:R:3 energy=2.369094108706671 pbc="F F F"
Ni       0.00000000       0.00000000       0.00000000       0.00000000       0.00000000      15.53969574
Ni       0.00000000       0.00000000       0.93434343       0.00000000       0.00000000     -15.53969574
2
Properties=species:S:1:pos:R:3:forces:R:3 energy=3.6707682908104506 pbc="F F F"
Ni       0.00000000       0.00000000       0.00000000       0.00000000       0.00000000      22.16899681
Ni       0.00000000       0.00000000       0.99393939       0.00000000       0.00000000     -22.16899681
2
Properties=species:S:1:pos:R:3:forces:R:3 energy=4.531831869230285 pbc="F F F"
Ni       0.00000000       0.00000000       0.00000000       0.00000000       0.00000000       5.22058344
Ni       0.00000000       0.00000000       1.05353535       0.00000000       0.00000000      -5.22058344
2
Properties=species:S:1:pos:R:3:forces:R:3 energy=4.342791178038045 pbc="F F F"
Ni       0.00000000       0.00000000       0.00000000       0.00000000       0.00000000     -10.27670574
Ni       0.00000000       0.00000000       1.11313131       0.00000000       0.00000000      10.27670574
2
Properties=species:S:1:pos:R:3:forces:R:3 energy=3.4387636555241095 pbc="F F F"
Ni       0.00000000       0.00000000       0.00000000       0.00000000       0.00000000     -19.30310059
Ni       0.00000000       0.00000000       1.17272727       0.00000000       0.00000000      19.30310059
2
Properties=species:S:1:pos:R:3:forces:R:3 energy=2.112422040351364 pbc="F F F"
Ni       0.00000000       0.00000000       0.00000000       0.00000000       0.00000000     -24.53369522
Ni       0.00000000       0.00000000       1.23232323       0.00000000       0.00000000      24.53369522
2
Properties=species:S:1:pos:R:3:forces:R:3 energy=0.6303921051770065 pbc="F F F"
Ni       0.00000000       0.00000000       0.00000000       0.00000000       0.00000000     -24.06601143
Ni       0.00000000       0.00000000       1.29191919       0.00000000       0.00000000      24.06601143
2
Properties=species:S:1:pos:R:3:forces:R:3 energy=-0.6468844546046444 pbc="F F F"
Ni       0.00000000       0.00000000       0.00000000       0.00000000       0.00000000     -18.24819183
Ni       0.00000000       0.00000000       1.35151515       0.00000000       0.00000000      18.24819183
2
Properties=species:S:1:pos:R:3:forces:R:3 energy=-1.5239183060997226 pbc="F F F"
Ni       0.00000000       0.00000000       0.00000000       0.00000000       0.00000000     -11.32988834
Ni       0.00000000       0.00000000       1.41111111       0.00000000       0.00000000      11.32988834
2
Properties=species:S:1:pos:R:3:forces:R:3 energy=-2.0381992833396754 pbc="F F F"
Ni       0.00000000       0.00000000       0.00000000       0.00000000       0.00000000      -6.38345051
Ni       0.00000000       0.00000000       1.47070707       0.00000000       0.00000000       6.38345051
2
Properties=species:S:1:pos:R:3:forces:R:3 energy=-2.339705302428434 pbc="F F F"
Ni       0.00000000       0.00000000       0.00000000       0.00000000       0.00000000      -4.15324831
Ni       0.00000000       0.00000000       1.53030303       0.00000000       0.00000000       4.15324831
2
Properties=species:S:1:pos:R:3:forces:R:3 energy=-2.5726338720408006 pbc="F F F"
Ni       0.00000000       0.00000000       0.00000000       0.00000000       0.00000000      -3.89217615
Ni       0.00000000       0.00000000       1.58989899       0.00000000       0.00000000       3.89217615
2
Properties=species:S:1:pos:R:3:forces:R:3 energy=-2.8184709937337122 pbc="F F F"
Ni       0.00000000       0.00000000       0.00000000       0.00000000       0.00000000      -4.38822460
Ni       0.00000000       0.00000000       1.64949495       0.00000000       0.00000000       4.38822460
2
Properties=species:S:1:pos:R:3:forces:R:3 energy=-3.0910215479165366 pbc="F F F"
Ni       0.00000000       0.00000000       0.00000000       0.00000000       0.00000000      -4.67070198
Ni       0.00000000       0.00000000       1.70909091       0.00000000       0.00000000       4.67070198
2
Properties=species:S:1:pos:R:3:forces:R:3 energy=-3.362558863553286 pbc="F F F"
Ni       0.00000000       0.00000000       0.00000000       0.00000000       0.00000000      -4.33485794
Ni       0.00000000       0.00000000       1.76868687       0.00000000       0.00000000       4.33485794
2
Properties=species:S:1:pos:R:3:forces:R:3 energy=-3.5968761649491694 pbc="F F F"
Ni       0.00000000       0.00000000       0.00000000       0.00000000       0.00000000      -3.46011233
Ni       0.00000000       0.00000000       1.82828283       0.00000000       0.00000000       3.46011233
2
Properties=species:S:1:pos:R:3:forces:R:3 energy=-3.7697475315286075 pbc="F F F"
Ni       0.00000000       0.00000000       0.00000000       0.00000000       0.00000000      -2.32066274
Ni       0.00000000       0.00000000       1.88787879       0.00000000       0.00000000       2.32066274
2
Properties=species:S:1:pos:R:3:forces:R:3 energy=-3.873285008088738 pbc="F F F"
Ni       0.00000000       0.00000000       0.00000000       0.00000000       0.00000000      -1.16811955
Ni       0.00000000       0.00000000       1.94747475       0.00000000       0.00000000       1.16811955
2
Properties=species:S:1:pos:R:3:forces:R:3 energy=-3.9119824837204833 pbc="F F F"
Ni       0.00000000       0.00000000       0.00000000       0.00000000       0.00000000      -0.16387261
Ni       0.00000000       0.00000000       2.00707071       0.00000000       0.00000000       0.16387261
2
Properties=species:S:1:pos:R:3:forces:R:3 energy=-3.897290042540734 pbc="F F F"
Ni       0.00000000       0.00000000       0.00000000       0.00000000       0.00000000       0.61749476
Ni       0.00000000       0.00000000       2.06666667       0.00000000       0.00000000      -0.61749476
2
Properties=species:S:1:pos:R:3:forces:R:3 energy=-3.8429659319343252 pbc="F F F"
Ni       0.00000000       0.00000000       0.00000000       0.00000000       0.00000000       1.16942334
Ni       0.00000000       0.00000000       2.12626263       0.00000000       0.00000000      -1.16942334
2
Properties=species:S:1:pos:R:3:forces:R:3 energy=-3.761817645918678 pbc="F F F"
Ni       0.00000000       0.00000000       0.00000000       0.00000000       0.00000000       1.52437055
Ni       0.00000000       0.00000000       2.18585859       0.00000000       0.00000000      -1.52437055
2
Properties=species:S:1:pos:R:3:forces:R:3 energy=-3.664477581060494 pbc="F F F"
Ni       0.00000000       0.00000000       0.00000000       0.00000000       0.00000000       1.71720755
Ni       0.00000000       0.00000000       2.24545455       0.00000000       0.00000000      -1.71720755
2
Properties=species:S:1:pos:R:3:forces:R:3 energy=-3.560032053852093 pbc="F F F"
Ni       0.00000000       0.00000000       0.00000000       0.00000000       0.00000000       1.76445448
Ni       0.00000000       0.00000000       2.30505051       0.00000000       0.00000000      -1.76445448
2
Properties=species:S:1:pos:R:3:forces:R:3 energy=-3.456672852303878 pbc="F F F"
Ni       0.00000000       0.00000000       0.00000000       0.00000000       0.00000000       1.68791842
Ni       0.00000000       0.00000000       2.36464646       0.00000000       0.00000000      -1.68791842
2
Properties=species:S:1:pos:R:3:forces:R:3 energy=-3.359895635154491 pbc="F F F"
Ni       0.00000000       0.00000000       0.00000000       0.00000000       0.00000000       1.55773294
Ni       0.00000000       0.00000000       2.42424242       0.00000000       0.00000000      -1.55773294
2
Properties=species:S:1:pos:R:3:forces:R:3 energy=-3.2712223381699403 pbc="F F F"
Ni       0.00000000       0.00000000       0.00000000       0.00000000       0.00000000       1.41196024
Ni       0.00000000       0.00000000       2.48383838       0.00000000       0.00000000      -1.41196024
2
Properties=species:S:1:pos:R:3:forces:R:3 energy=-3.192904521629684 pbc="F F F"
Ni       0.00000000       0.00000000       0.00000000       0.00000000       0.00000000       1.20405233
Ni       0.00000000       0.00000000       2.54343434       0.00000000       0.00000000      -1.20405233
2
Properties=species:S:1:pos:R:3:forces:R:3 energy=-3.1287108549100346 pbc="F F F"
Ni       0.00000000       0.00000000       0.00000000       0.00000000       0.00000000       0.94734550
Ni       0.00000000       0.00000000       2.60303030       0.00000000       0.00000000      -0.94734550
2
Properties=species:S:1:pos:R:3:forces:R:3 energy=-3.0796917814363445 pbc="F F F"
Ni       0.00000000       0.00000000       0.00000000       0.00000000       0.00000000       0.70472258
Ni       0.00000000       0.00000000       2.66262626       0.00000000       0.00000000      -0.70472258
2
Properties=species:S:1:pos:R:3:forces:R:3 energy=-3.043510535458367 pbc="F F F"
Ni       0.00000000       0.00000000       0.00000000       0.00000000       0.00000000       0.52163094
Ni       0.00000000       0.00000000       2.72222222       0.00000000       0.00000000      -0.52163094
2
Properties=species:S:1:pos:R:3:forces:R:3 energy=-3.01598239641388 pbc="F F F"
Ni       0.00000000       0.00000000       0.00000000       0.00000000       0.00000000       0.41511631
Ni       0.00000000       0.00000000       2.78181818       0.00000000       0.00000000      -0.41511631
2
Properties=species:S:1:pos:R:3:forces:R:3 energy=-2.9925858557290193 pbc="F F F"
Ni       0.00000000       0.00000000       0.00000000       0.00000000       0.00000000       0.38100132
Ni       0.00000000       0.00000000       2.84141414       0.00000000       0.00000000      -0.38100132
2
Properties=species:S:1:pos:R:3:forces:R:3 energy=-2.9694535490565572 pbc="F F F"
Ni       0.00000000       0.00000000       0.00000000       0.00000000       0.00000000       0.40300277
Ni       0.00000000       0.00000000       2.90101010       0.00000000       0.00000000      -0.40300277
2
Properties=species:S:1:pos:R:3:forces:R:3 energy=-2.9438308895038627 pbc="F F F"
Ni       0.00000000       0.00000000       0.00000000       0.00000000       0.00000000       0.46134788
Ni       0.00000000       0.00000000       2.96060606       0.00000000       0.00000000      -0.46134788
2
Properties=species:S:1:pos:R:3:forces:R:3 energy=-2.9140936593158706 pbc="F F F"
Ni       0.00000000       0.00000000       0.00000000       0.00000000       0.00000000       0.53847975
Ni       0.00000000       0.00000000       3.02020202       0.00000000       0.00000000      -0.53847975
2
Properties=species:S:1:pos:R:3:forces:R:3 energy=-2.87954653785656 pbc="F F F"
Ni       0.00000000       0.00000000       0.00000000       0.00000000       0.00000000       0.62087011
Ni       0.00000000       0.00000000       3.07979798       0.00000000       0.00000000      -0.62087011
2
Properties=species:S:1:pos:R:3:forces:R:3 energy=-2.840188861194748 pbc="F F F"
Ni       0.00000000       0.00000000       0.00000000       0.00000000       0.00000000       0.69845456
Ni       0.00000000       0.00000000       3.13939394       0.00000000       0.00000000      -0.69845456
2
Properties=species:S:1:pos:R:3:forces:R:3 energy=-2.7965415135446308 pbc="F F F"
Ni       0.00000000       0.00000000       0.00000000       0.00000000       0.00000000       0.76378828
Ni       0.00000000       0.00000000       3.19898990       0.00000000       0.00000000      -0.76378828
2
Properties=species:S:1:pos:R:3:forces:R:3 energy=-2.749494297361557 pbc="F F F"
Ni       0.00000000       0.00000000       0.00000000       0.00000000       0.00000000       0.81195527
Ni       0.00000000       0.00000000       3.25858586       0.00000000       0.00000000      -0.81195527
2
Properties=species:S:1:pos:R:3:forces:R:3 energy=-2.7001468344579362 pbc="F F F"
Ni       0.00000000       0.00000000       0.00000000       0.00000000       0.00000000       0.84090382
Ni       0.00000000       0.00000000       3.31818182       0.00000000       0.00000000      -0.84090382
2
Properties=species:S:1:pos:R:3:forces:R:3 energy=-2.6496324126871498 pbc="F F F"
Ni       0.00000000       0.00000000       0.00000000       0.00000000       0.00000000       0.85145307
Ni       0.00000000       0.00000000       3.37777778       0.00000000       0.00000000      -0.85145307
2
Properties=species:S:1:pos:R:3:forces:R:3 energy=-2.5989672570523084 pbc="F F F"
Ni       0.00000000       0.00000000       0.00000000       0.00000000       0.00000000       0.84658110
Ni       0.00000000       0.00000000       3.43737374       0.00000000       0.00000000      -0.84658110
2
Properties=species:S:1:pos:R:3:forces:R:3 energy=-2.5489545420535378 pbc="F F F"
Ni       0.00000000       0.00000000       0.00000000       0.00000000       0.00000000       0.83020788
Ni       0.00000000       0.00000000       3.49696970       0.00000000       0.00000000      -0.83020788
2
Properties=species:S:1:pos:R:3:forces:R:3 energy=-2.5001672952423726 pbc="F F F"
Ni       0.00000000       0.00000000       0.00000000       0.00000000       0.00000000       0.80600429
Ni       0.00000000       0.00000000       3.55656566       0.00000000       0.00000000      -0.80600429
2
Properties=species:S:1:pos:R:3:forces:R:3 energy=-2.452986953675386 pbc="F F F"
Ni       0.00000000       0.00000000       0.00000000       0.00000000       0.00000000       0.77667290
Ni       0.00000000       0.00000000       3.61616162       0.00000000       0.00000000      -0.77667290
2
Properties=species:S:1:pos:R:3:forces:R:3 energy=-2.407664141644928 pbc="F F F"
Ni       0.00000000       0.00000000       0.00000000       0.00000000       0.00000000       0.74382341
Ni       0.00000000       0.00000000       3.67575758       0.00000000       0.00000000      -0.74382341
2
Properties=species:S:1:pos:R:3:forces:R:3 energy=-2.3643827442563654 pbc="F F F"
Ni       0.00000000       0.00000000       0.00000000       0.00000000       0.00000000       0.70827836
Ni       0.00000000       0.00000000       3.73535354       0.00000000       0.00000000      -0.70827836
2
Properties=species:S:1:pos:R:3:forces:R:3 energy=-2.3232869667688574 pbc="F F F"
Ni       0.00000000       0.00000000       0.00000000       0.00000000       0.00000000       0.67051768
Ni       0.00000000       0.00000000       3.79494949       0.00000000       0.00000000      -0.67051768
2
Properties=species:S:1:pos:R:3:forces:R:3 energy=-2.284496255931435 pbc="F F F"
Ni       0.00000000       0.00000000       0.00000000       0.00000000       0.00000000       0.63104069
Ni       0.00000000       0.00000000       3.85454545       0.00000000       0.00000000      -0.63104069
2
Properties=species:S:1:pos:R:3:forces:R:3 energy=-2.248093233334226 pbc="F F F"
Ni       0.00000000       0.00000000       0.00000000       0.00000000       0.00000000       0.59052527
Ni       0.00000000       0.00000000       3.91414141       0.00000000       0.00000000      -0.59052527
2
Properties=species:S:1:pos:R:3:forces:R:3 energy=-2.2141143400630723 pbc="F F F"
Ni       0.00000000       0.00000000       0.00000000       0.00000000       0.00000000       0.54979664
Ni       0.00000000       0.00000000       3.97373737       0.00000000       0.00000000      -0.54979664
2
Properties=species:S:1:pos:R:3:forces:R:3 energy=-2.1825490137378396 pbc="F F F"
Ni       0.00000000       0.00000000       0.00000000       0.00000000       0.00000000       0.50969511
Ni       0.00000000       0.00000000       4.03333333       0.00000000       0.00000000      -0.50969511
2
Properties=species:S:1:pos:R:3:forces:R:3 energy=-2.1533368948456504 pbc="F F F"
Ni       0.00000000       0.00000000       0.00000000       0.00000000       0.00000000       0.47091046
Ni       0.00000000       0.00000000       4.09292929       0.00000000       0.00000000      -0.47091046
2
Properties=species:S:1:pos:R:3:forces:R:3 energy=-2.1263850348921864 pbc="F F F"
Ni       0.00000000       0.00000000       0.00000000       0.00000000       0.00000000       0.43388319
Ni       0.00000000       0.00000000       4.15252525       0.00000000       0.00000000      -0.43388319
2
Properties=species:S:1:pos:R:3:forces:R:3 energy=-2.101583235218222 pbc="F F F"
Ni       0.00000000       0.00000000       0.00000000       0.00000000       0.00000000       0.39877412
Ni       0.00000000       0.00000000       4.21212121       0.00000000       0.00000000      -0.39877412
2
Properties=species:S:1:pos:R:3:forces:R:3 energy=-2.0788175521593524 pbc="F F F"
Ni       0.00000000       0.00000000       0.00000000       0.00000000       0.00000000       0.36552033
Ni       0.00000000       0.00000000       4.27171717       0.00000000       0.00000000      -0.36552033
2
Properties=species:S:1:pos:R:3:forces:R:3 energy=-2.057982863538601 pbc="F F F"
Ni       0.00000000       0.00000000       0.00000000       0.00000000       0.00000000       0.33394718
Ni       0.00000000       0.00000000       4.33131313       0.00000000       0.00000000      -0.33394718
2
Properties=species:S:1:pos:R:3:forces:R:3 energy=-2.038983938046166 pbc="F F F"
Ni       0.00000000       0.00000000       0.00000000       0.00000000       0.00000000       0.30388966
Ni       0.00000000       0.00000000       4.39090909       0.00000000       0.00000000      -0.30388966
2
Properties=species:S:1:pos:R:3:forces:R:3 energy=-2.021731403130383 pbc="F F F"
Ni       0.00000000       0.00000000       0.00000000       0.00000000       0.00000000       0.27534845
Ni       0.00000000       0.00000000       4.45050505       0.00000000       0.00000000      -0.27534845
2
Properties=species:S:1:pos:R:3:forces:R:3 energy=-2.0061295274614337 pbc="F F F"
Ni       0.00000000       0.00000000       0.00000000       0.00000000       0.00000000       0.24858454
Ni       0.00000000       0.00000000       4.51010101       0.00000000       0.00000000      -0.24858454
2
Properties=species:S:1:pos:R:3:forces:R:3 energy=-1.992056426685561 pbc="F F F"
Ni       0.00000000       0.00000000       0.00000000       0.00000000       0.00000000       0.22412580
Ni       0.00000000       0.00000000       4.56969697       0.00000000       0.00000000      -0.22412580
2
Properties=species:S:1:pos:R:3:forces:R:3 energy=-1.9793560300532846 pbc="F F F"
Ni       0.00000000       0.00000000       0.00000000       0.00000000       0.00000000       0.20263916
Ni       0.00000000       0.00000000       4.62929293       0.00000000       0.00000000      -0.20263916
2
Properties=species:S:1:pos:R:3:forces:R:3 energy=-1.9678335734730728 pbc="F F F"
Ni       0.00000000       0.00000000       0.00000000       0.00000000       0.00000000       0.18466768
Ni       0.00000000       0.00000000       4.68888889       0.00000000       0.00000000      -0.18466768
2
Properties=species:S:1:pos:R:3:forces:R:3 energy=-1.9572723585039655 pbc="F F F"
Ni       0.00000000       0.00000000       0.00000000       0.00000000       0.00000000       0.17033938
Ni       0.00000000       0.00000000       4.74848485       0.00000000       0.00000000      -0.17033938
2
Properties=species:S:1:pos:R:3:forces:R:3 energy=-1.9474669915724763 pbc="F F F"
Ni       0.00000000       0.00000000       0.00000000       0.00000000       0.00000000       0.15918931
Ni       0.00000000       0.00000000       4.80808081       0.00000000       0.00000000      -0.15918931
2
Properties=species:S:1:pos:R:3:forces:R:3 energy=-1.9382554155935172 pbc="F F F"
Ni       0.00000000       0.00000000       0.00000000       0.00000000       0.00000000       0.15018573
Ni       0.00000000       0.00000000       4.86767677       0.00000000       0.00000000      -0.15018573
2
Properties=species:S:1:pos:R:3:forces:R:3 energy=-1.9295503083629326 pbc="F F F"
Ni       0.00000000       0.00000000       0.00000000       0.00000000       0.00000000       0.14196278
Ni       0.00000000       0.00000000       4.92727273       0.00000000       0.00000000      -0.14196278
2
Properties=species:S:1:pos:R:3:forces:R:3 energy=-1.921346452526648 pbc="F F F"
Ni       0.00000000       0.00000000       0.00000000       0.00000000       0.00000000       0.13315174
Ni       0.00000000       0.00000000       4.98686869       0.00000000       0.00000000      -0.13315174
2
Properties=species:S:1:pos:R:3:forces:R:3 energy=-1.913713444391115 pbc="F F F"
Ni       0.00000000       0.00000000       0.00000000       0.00000000       0.00000000       0.12269457
Ni       0.00000000       0.00000000       5.04646465       0.00000000       0.00000000      -0.12269457
2
Properties=species:S:1:pos:R:3:forces:R:3 energy=-1.906766749824617 pbc="F F F"
Ni       0.00000000       0.00000000       0.00000000       0.00000000       0.00000000       0.11004318
Ni       0.00000000       0.00000000       5.10606061       0.00000000       0.00000000      -0.11004318
2
Properties=species:S:1:pos:R:3:forces:R:3 energy=-1.900639494005286 pbc="F F F"
Ni       0.00000000       0.00000000       0.00000000       0.00000000       0.00000000       0.09523375
Ni       0.00000000       0.00000000       5.16565657       0.00000000       0.00000000      -0.09523375
2
Properties=species:S:1:pos:R:3:forces:R:3 energy=-1.8954466459492116 pbc="F F F"
Ni       0.00000000       0.00000000       0.00000000       0.00000000       0.00000000       0.07885298
Ni       0.00000000       0.00000000       5.22525253       0.00000000       0.00000000      -0.07885298
2
Properties=species:S:1:pos:R:3:forces:R:3 energy=-1.8912528779356856 pbc="F F F"
Ni       0.00000000       0.00000000       0.00000000       0.00000000       0.00000000       0.06188925
Ni       0.00000000       0.00000000       5.28484848       0.00000000       0.00000000      -0.06188925
2
Properties=species:S:1:pos:R:3:forces:R:3 energy=-1.888057447686223 pbc="F F F"
Ni       0.00000000       0.00000000       0.00000000       0.00000000       0.00000000       0.04555049
Ni       0.00000000       0.00000000       5.34444444       0.00000000       0.00000000      -0.04555049
2
Properties=species:S:1:pos:R:3:forces:R:3 energy=-1.8857873111522572 pbc="F F F"
Ni       0.00000000       0.00000000       0.00000000       0.00000000       0.00000000       0.03102728
Ni       0.00000000       0.00000000       5.40404040       0.00000000       0.00000000      -0.03102728
2
Properties=species:S:1:pos:R:3:forces:R:3 energy=-1.8843038948539304 pbc="F F F"
Ni       0.00000000       0.00000000       0.00000000       0.00000000       0.00000000       0.01927152
Ni       0.00000000       0.00000000       5.46363636       0.00000000       0.00000000      -0.01927152
2
Properties=species:S:1:pos:R:3:forces:R:3 energy=-1.8834238826459855 pbc="F F F"
Ni       0.00000000       0.00000000       0.00000000       0.00000000       0.00000000       0.01083407
Ni       0.00000000       0.00000000       5.52323232       0.00000000       0.00000000      -0.01083407
2
Properties=species:S:1:pos:R:3:forces:R:3 energy=-1.8829455162052877 pbc="F F F"
Ni       0.00000000       0.00000000       0.00000000       0.00000000       0.00000000       0.00576022
Ni       0.00000000       0.00000000       5.58282828       0.00000000       0.00000000      -0.00576022
2
Properties=species:S:1:pos:R:3:forces:R:3 energy=-1.8826780318057879 pbc="F F F"
Ni       0.00000000       0.00000000       0.00000000       0.00000000       0.00000000       0.00365660
Ni       0.00000000       0.00000000       5.64242424       0.00000000       0.00000000      -0.00365660
2
Properties=species:S:1:pos:R:3:forces:R:3 energy=-1.8824657195882095 pbc="F F F"
Ni       0.00000000       0.00000000       0.00000000       0.00000000       0.00000000       0.00378388
Ni       0.00000000       0.00000000       5.70202020       0.00000000       0.00000000      -0.00378388
2
Properties=species:S:1:pos:R:3:forces:R:3 energy=-1.8822002084525158 pbc="F F F"
Ni       0.00000000       0.00000000       0.00000000       0.00000000       0.00000000       0.00525102
Ni       0.00000000       0.00000000       5.76161616       0.00000000       0.00000000      -0.00525102
2
Properties=species:S:1:pos:R:3:forces:R:3 energy=-1.881830484389966 pbc="F F F"
Ni       0.00000000       0.00000000       0.00000000       0.00000000       0.00000000       0.00717841
Ni       0.00000000       0.00000000       5.82121212       0.00000000       0.00000000      -0.00717841
2
Properties=species:S:1:pos:R:3:forces:R:3 energy=-1.8813494816059282 pbc="F F F"
Ni       0.00000000       0.00000000       0.00000000       0.00000000       0.00000000       0.00885089
Ni       0.00000000       0.00000000       5.88080808       0.00000000       0.00000000      -0.00885089
2
Properties=species:S:1:pos:R:3:forces:R:3 energy=-1.880790716149371 pbc="F F F"
Ni       0.00000000       0.00000000       0.00000000       0.00000000       0.00000000       0.00978027
Ni       0.00000000       0.00000000       5.94040404       0.00000000       0.00000000      -0.00978027
2
Properties=species:S:1:pos:R:3:forces:R:3 energy=-1.8802041386961525 pbc="F F F"
Ni       0.00000000       0.00000000       0.00000000       0.00000000       0.00000000       0.00971282
Ni       0.00000000       0.00000000       6.00000000       0.00000000       0.00000000      -0.00971282
