2
Properties=species:S:1:pos:R:3:forces:R:3 energy=3967.3488478218687 pbc="F F F"
Ni       0.00000000       0.00000000       0.00000000       0.00000000       0.00000000  -62215.39843750
Ni       0.00000000       0.00000000       0.18000000       0.00000000       0.00000000   62215.39843750
2
Properties=species:S:1:pos:R:3:forces:R:3 energy=1707.1227736031187 pbc="F F F"
Ni       0.00000000       0.00000000       0.00000000       0.00000000       0.00000000  -22567.99804688
Ni       0.00000000       0.00000000       0.23878788       0.00000000       0.00000000   22567.99804688
2
Properties=species:S:1:pos:R:3:forces:R:3 energy=823.3238844429626 pbc="F F F"
Ni       0.00000000       0.00000000       0.00000000       0.00000000       0.00000000   -9632.09960938
Ni       0.00000000       0.00000000       0.29757576       0.00000000       0.00000000    9632.09960938
2
Properties=species:S:1:pos:R:3:forces:R:3 energy=427.3190321512085 pbc="F F F"
Ni       0.00000000       0.00000000       0.00000000       0.00000000       0.00000000   -4559.48046875
Ni       0.00000000       0.00000000       0.35636364       0.00000000       0.00000000    4559.48046875
2
Properties=species:S:1:pos:R:3:forces:R:3 energy=233.6831831585207 pbc="F F F"
Ni       0.00000000       0.00000000       0.00000000       0.00000000       0.00000000   -2311.56030273
Ni       0.00000000       0.00000000       0.41515152       0.00000000       0.00000000    2311.56030273
2
Properties=species:S:1:pos:R:3:forces:R:3 energy=133.25711200736762 pbc="F F F"
Ni       0.00000000       0.00000000       0.00000000       0.00000000       0.00000000   -1229.76232910
Ni       0.00000000       0.00000000       0.47393939       0.00000000       0.00000000    1229.76232910
2
Properties=species:S:1:pos:R:3:forces:R:3 energy=78.88939047826084 pbc="F F F"
Ni       0.00000000       0.00000000       0.00000000       0.00000000       0.00000000    -679.42907715
Ni       0.00000000       0.00000000       0.53272727       0.00000000       0.00000000     679.42907715
2
Properties=species:S:1:pos:R:3:forces:R:3 energy=48.33957820888364 pbc="F F F"
Ni       0.00000000       0.00000000       0.00000000       0.00000000       0.00000000    -390.43173218
Ni       0.00000000       0.00000000       0.59151515       0.00000000       0.00000000     390.43173218
2
Properties=species:S:1:pos:R:3:forces:R:3 energy=30.3104015823787 pbc="F F F"
Ni       0.00000000       0.00000000       0.00000000       0.00000000       0.00000000    -239.77264404
Ni       0.00000000       0.00000000       0.65030303       0.00000000       0.00000000     239.77264404
2
Properties=species:S:1:pos:R:3:forces:R:3 energy=18.6474550112096 pbc="F F F"
Ni       0.00000000       0.00000000       0.00000000       0.00000000       0.00000000    -166.15693665
Ni       0.00000000       0.00000000       0.70909091       0.00000000       0.00000000     166.15693665
2
Properties=species:S:1:pos:R:3:forces:R:3 energy=10.26166915109602 pbc="F F F"
Ni       0.00000000       0.00000000       0.00000000       0.00000000       0.00000000    -118.73506165
Ni       0.00000000       0.00000000       0.76787879       0.00000000       0.00000000     118.73506165
2
Properties=species:S:1:pos:R:3:forces:R:3 energy=4.791287228943129 pbc="F F F"
Ni       0.00000000       0.00000000       0.00000000       0.00000000       0.00000000     -67.56282043
Ni       0.00000000       0.00000000       0.82666667       0.00000000       0.00000000      67.56282043
2
Properties=species:S:1:pos:R:3:forces:R:3 energy=2.3151466648078602 pbc="F F F"
Ni       0.00000000       0.00000000       0.00000000       0.00000000       0.00000000     -16.70464706
Ni       0.00000000       0.00000000       0.88545455       0.00000000       0.00000000      16.70464706
2
Properties=species:S:1:pos:R:3:forces:R:3 energy=2.5420602229984146 pbc="F F F"
Ni       0.00000000       0.00000000       0.00000000       0.00000000       0.00000000      19.22584152
Ni       0.00000000       0.00000000       0.94424242       0.00000000       0.00000000     -19.22584152
2
Properties=species:S:1:pos:R:3:forces:R:3 energy=3.8647009666266077 pbc="F F F"
Ni       0.00000000       0.00000000       0.00000000       0.00000000       0.00000000      20.40655518
Ni       0.00000000       0.00000000       1.00303030       0.00000000       0.00000000     -20.40655518
2
Properties=species:S:1:pos:R:3:forces:R:3 energy=4.564261735422075 pbc="F F F"
Ni       0.00000000       0.00000000       0.00000000       0.00000000       0.00000000       2.62400007
Ni       0.00000000       0.00000000       1.06181818       0.00000000       0.00000000      -2.62400007
2
Properties=species:S:1:pos:R:3:forces:R:3 energy=4.260638060466163 pbc="F F F"
Ni       0.00000000       0.00000000       0.00000000       0.00000000       0.00000000     -11.68737984
Ni       0.00000000       0.00000000       1.12060606       0.00000000       0.00000000      11.68737984
2
Properties=species:S:1:pos:R:3:forces:R:3 energy=3.3074944381547158 pbc="F F F"
Ni       0.00000000       0.00000000       0.00000000       0.00000000       0.00000000     -20.07072258
Ni       0.00000000       0.00000000       1.17939394       0.00000000       0.00000000      20.07072258
2
Properties=species:S:1:pos:R:3:forces:R:3 energy=1.9679115636140494 pbc="F F F"
Ni       0.00000000       0.00000000       0.00000000       0.00000000       0.00000000     -24.78838348
Ni       0.00000000       0.00000000       1.23818182       0.00000000       0.00000000      24.78838348
2
Properties=species:S:1:pos:R:3:forces:R:3 energy=0.5096863120584411 pbc="F F F"
Ni       0.00000000       0.00000000       0.00000000       0.00000000       0.00000000     -23.72726059
Ni       0.00000000       0.00000000       1.29696970       0.00000000       0.00000000      23.72726059
2
Properties=species:S:1:pos:R:3:forces:R:3 energy=-0.7232356675574269 pbc="F F F"
Ni       0.00000000       0.00000000       0.00000000       0.00000000       0.00000000     -17.74275398
Ni       0.00000000       0.00000000       1.35575758       0.00000000       0.00000000      17.74275398
2
Properties=species:S:1:pos:R:3:forces:R:3 energy=-1.5622145886390768 pbc="F F F"
Ni       0.00000000       0.00000000       0.00000000       0.00000000       0.00000000     -10.97401524
Ni       0.00000000       0.00000000       1.41454545       0.00000000       0.00000000      10.97401524
2
Properties=species:S:1:pos:R:3:forces:R:3 energy=-2.054763361101698 pbc="F F F"
Ni       0.00000000       0.00000000       0.00000000       0.00000000       0.00000000      -6.22978830
Ni       0.00000000       0.00000000       1.47333333       0.00000000       0.00000000       6.22978830
2
Properties=species:S:1:pos:R:3:forces:R:3 energy=-2.3472269357616704 pbc="F F F"
Ni       0.00000000       0.00000000       0.00000000       0.00000000       0.00000000      -4.12205219
Ni       0.00000000       0.00000000       1.53212121       0.00000000       0.00000000       4.12205219
2
Properties=species:S:1:pos:R:3:forces:R:3 energy=-2.5765686118930513 pbc="F F F"
Ni       0.00000000       0.00000000       0.00000000       0.00000000       0.00000000      -3.89766145
Ni       0.00000000       0.00000000       1.59090909       0.00000000       0.00000000       3.89766145
2
Properties=species:S:1:pos:R:3:forces:R:3 energy=-2.8193571702496554 pbc="F F F"
Ni       0.00000000       0.00000000       0.00000000       0.00000000       0.00000000      -4.38993406
Ni       0.00000000       0.00000000       1.64969697       0.00000000       0.00000000       4.38993406
2
Properties=species:S:1:pos:R:3:forces:R:3 energy=-3.088190562540462 pbc="F F F"
Ni       0.00000000       0.00000000       0.00000000       0.00000000       0.00000000      -4.67075205
Ni       0.00000000       0.00000000       1.70848485       0.00000000       0.00000000       4.67075205
2
Properties=species:S:1:pos:R:3:forces:R:3 energy=-3.356418791522048 pbc="F F F"
Ni       0.00000000       0.00000000       0.00000000       0.00000000       0.00000000      -4.35000181
Ni       0.00000000       0.00000000       1.76727273       0.00000000       0.00000000       4.35000181
2
Properties=species:S:1:pos:R:3:forces:R:3 energy=-3.589143613856504 pbc="F F F"
Ni       0.00000000       0.00000000       0.00000000       0.00000000       0.00000000      -3.49927783
Ni       0.00000000       0.00000000       1.82606061       0.00000000       0.00000000       3.49927783
2
Properties=species:S:1:pos:R:3:forces:R:3 energy=-3.7626254426796986 pbc="F F F"
Ni       0.00000000       0.00000000       0.00000000       0.00000000       0.00000000      -2.38069081
Ni       0.00000000       0.00000000       1.88484848       0.00000000       0.00000000       2.38069081
2
Properties=species:S:1:pos:R:3:forces:R:3 energy=-3.868665570329072 pbc="F F F"
Ni       0.00000000       0.00000000       0.00000000       0.00000000       0.00000000      -1.23912799
Ni       0.00000000       0.00000000       1.94363636       0.00000000       0.00000000       1.23912799
2
Properties=species:S:1:pos:R:3:forces:R:3 energy=-3.9110566818145465 pbc="F F F"
Ni       0.00000000       0.00000000       0.00000000       0.00000000       0.00000000      -0.23463862
Ni       0.00000000       0.00000000       2.00242424       0.00000000       0.00000000       0.23463862
2
Properties=species:S:1:pos:R:3:forces:R:3 energy=-3.900490744791028 pbc="F F F"
Ni       0.00000000       0.00000000       0.00000000       0.00000000       0.00000000       0.55580789
Ni       0.00000000       0.00000000       2.06121212       0.00000000       0.00000000      -0.55580789
2
Properties=species:S:1:pos:R:3:forces:R:3 energy=-3.8501404544821427 pbc="F F F"
Ni       0.00000000       0.00000000       0.00000000       0.00000000       0.00000000       1.12139237
Ni       0.00000000       0.00000000       2.12000000       0.00000000       0.00000000      -1.12139237
2
Properties=species:S:1:pos:R:3:forces:R:3 energy=-3.7724810815211582 pbc="F F F"
Ni       0.00000000       0.00000000       0.00000000       0.00000000       0.00000000       1.49126208
Ni       0.00000000       0.00000000       2.17878788       0.00000000       0.00000000      -1.49126208
2
Properties=species:S:1:pos:R:3:forces:R:3 energy=-3.677942993068927 pbc="F F F"
Ni       0.00000000       0.00000000       0.00000000       0.00000000       0.00000000       1.70025921
Ni       0.00000000       0.00000000       2.23757576       0.00000000       0.00000000      -1.70025921
2
Properties=species:S:1:pos:R:3:forces:R:3 energy=-3.5753696981523686 pbc="F F F"
Ni       0.00000000       0.00000000       0.00000000       0.00000000       0.00000000       1.76621735
Ni       0.00000000       0.00000000       2.29636364       0.00000000       0.00000000      -1.76621735
2
Properties=species:S:1:pos:R:3:forces:R:3 energy=-3.4727873681322907 pbc="F F F"
Ni       0.00000000       0.00000000       0.00000000       0.00000000       0.00000000       1.70602751
Ni       0.00000000       0.00000000       2.35515152       0.00000000       0.00000000      -1.70602751
2
Properties=species:S:1:pos:R:3:forces:R:3 energy=-3.376064876285545 pbc="F F F"
Ni       0.00000000       0.00000000       0.00000000       0.00000000       0.00000000       1.58078730
Ni       0.00000000       0.00000000       2.41393939       0.00000000       0.00000000      -1.58078730
2
Properties=species:S:1:pos:R:3:forces:R:3 energy=-3.2870820554473723 pbc="F F F"
Ni       0.00000000       0.00000000       0.00000000       0.00000000       0.00000000       1.44254255
Ni       0.00000000       0.00000000       2.47272727       0.00000000       0.00000000      -1.44254255
2
Properties=species:S:1:pos:R:3:forces:R:3 energy=-3.2075403300975442 pbc="F F F"
Ni       0.00000000       0.00000000       0.00000000       0.00000000       0.00000000       1.25130713
Ni       0.00000000       0.00000000       2.53151515       0.00000000       0.00000000      -1.25130713
2
Properties=species:S:1:pos:R:3:forces:R:3 energy=-3.1411215614613175 pbc="F F F"
Ni       0.00000000       0.00000000       0.00000000       0.00000000       0.00000000       1.00308454
Ni       0.00000000       0.00000000       2.59030303       0.00000000       0.00000000      -1.00308454
2
Properties=species:S:1:pos:R:3:forces:R:3 energy=-3.089573074362083 pbc="F F F"
Ni       0.00000000       0.00000000       0.00000000       0.00000000       0.00000000       0.75575244
Ni       0.00000000       0.00000000       2.64909091       0.00000000       0.00000000      -0.75575244
2
Properties=species:S:1:pos:R:3:forces:R:3 energy=-3.0512545889564002 pbc="F F F"
Ni       0.00000000       0.00000000       0.00000000       0.00000000       0.00000000       0.55892611
Ni       0.00000000       0.00000000       2.70787879       0.00000000       0.00000000      -0.55892611
2
Properties=species:S:1:pos:R:3:forces:R:3 energy=-3.0224161883126675 pbc="F F F"
Ni       0.00000000       0.00000000       0.00000000       0.00000000       0.00000000       0.43488550
Ni       0.00000000       0.00000000       2.76666667       0.00000000       0.00000000      -0.43488550
2
Properties=species:S:1:pos:R:3:forces:R:3 energy=-2.998683350562031 pbc="F F F"
Ni       0.00000000       0.00000000       0.00000000       0.00000000       0.00000000       0.38383603
Ni       0.00000000       0.00000000       2.82545455       0.00000000       0.00000000      -0.38383603
2
Properties=species:S:1:pos:R:3:forces:R:3 energy=-2.9761164885756295 pbc="F F F"
Ni       0.00000000       0.00000000       0.00000000       0.00000000       0.00000000       0.39229280
Ni       0.00000000       0.00000000       2.88424242       0.00000000       0.00000000      -0.39229280
2
Properties=species:S:1:pos:R:3:forces:R:3 energy=-2.951762378450615 pbc="F F F"
Ni       0.00000000       0.00000000       0.00000000       0.00000000       0.00000000       0.44147509
Ni       0.00000000       0.00000000       2.94303030       0.00000000       0.00000000      -0.44147509
2
Properties=species:S:1:pos:R:3:forces:R:3 energy=-2.923763811131409 pbc="F F F"
Ni       0.00000000       0.00000000       0.00000000       0.00000000       0.00000000       0.51357442
Ni       0.00000000       0.00000000       3.00181818       0.00000000       0.00000000      -0.51357442
2
Properties=species:S:1:pos:R:3:forces:R:3 energy=-2.8912094484139406 pbc="F F F"
Ni       0.00000000       0.00000000       0.00000000       0.00000000       0.00000000       0.59443599
Ni       0.00000000       0.00000000       3.06060606       0.00000000       0.00000000      -0.59443599
2
Properties=species:S:1:pos:R:3:forces:R:3 energy=-2.8539101576481984 pbc="F F F"
Ni       0.00000000       0.00000000       0.00000000       0.00000000       0.00000000       0.67346299
Ni       0.00000000       0.00000000       3.11939394       0.00000000       0.00000000      -0.67346299
2
Properties=species:S:1:pos:R:3:forces:R:3 energy=-2.812218594566199 pbc="F F F"
Ni       0.00000000       0.00000000       0.00000000       0.00000000       0.00000000       0.74273300
Ni       0.00000000       0.00000000       3.17818182       0.00000000       0.00000000      -0.74273300
2
Properties=species:S:1:pos:R:3:forces:R:3 energy=-2.7668851374396697 pbc="F F F"
Ni       0.00000000       0.00000000       0.00000000       0.00000000       0.00000000       0.79666179
Ni       0.00000000       0.00000000       3.23696970       0.00000000       0.00000000      -0.79666179
2
Properties=species:S:1:pos:R:3:forces:R:3 energy=-2.7189113103390565 pbc="F F F"
Ni       0.00000000       0.00000000       0.00000000       0.00000000       0.00000000       0.83227187
Ni       0.00000000       0.00000000       3.29575758       0.00000000       0.00000000      -0.83227187
2
Properties=species:S:1:pos:R:3:forces:R:3 energy=-2.6693942985419876 pbc="F F F"
Ni       0.00000000       0.00000000       0.00000000       0.00000000       0.00000000       0.84937394
Ni       0.00000000       0.00000000       3.35454545       0.00000000       0.00000000      -0.84937394
2
Properties=species:S:1:pos:R:3:forces:R:3 energy=-2.6193665561859816 pbc="F F F"
Ni       0.00000000       0.00000000       0.00000000       0.00000000       0.00000000       0.85015726
Ni       0.00000000       0.00000000       3.41333333       0.00000000       0.00000000      -0.85015726
2
Properties=species:S:1:pos:R:3:forces:R:3 energy=-2.569686317455744 pbc="F F F"
Ni       0.00000000       0.00000000       0.00000000       0.00000000       0.00000000       0.83818078
Ni       0.00000000       0.00000000       3.47212121       0.00000000       0.00000000      -0.83818078
2
Properties=species:S:1:pos:R:3:forces:R:3 energy=-2.52099321271359 pbc="F F F"
Ni       0.00000000       0.00000000       0.00000000       0.00000000       0.00000000       0.81718528
Ni       0.00000000       0.00000000       3.53090909       0.00000000       0.00000000      -0.81718528
2
Properties=species:S:1:pos:R:3:forces:R:3 energy=-2.473721835351781 pbc="F F F"
Ni       0.00000000       0.00000000       0.00000000       0.00000000       0.00000000       0.79020458
Ni       0.00000000       0.00000000       3.58969697       0.00000000       0.00000000      -0.79020458
2
Properties=species:S:1:pos:R:3:forces:R:3 energy=-2.428162093371255 pbc="F F F"
Ni       0.00000000       0.00000000       0.00000000       0.00000000       0.00000000       0.75922734
Ni       0.00000000       0.00000000       3.64848485       0.00000000       0.00000000      -0.75922734
2
Properties=species:S:1:pos:R:3:forces:R:3 energy=-2.384512503437657 pbc="F F F"
Ni       0.00000000       0.00000000       0.00000000       0.00000000       0.00000000       0.72532862
Ni       0.00000000       0.00000000       3.70727273       0.00000000       0.00000000      -0.72532862
2
Properties=species:S:1:pos:R:3:forces:R:3 energy=-2.3429268132168852 pbc="F F F"
Ni       0.00000000       0.00000000       0.00000000       0.00000000       0.00000000       0.68907034
Ni       0.00000000       0.00000000       3.76606061       0.00000000       0.00000000      -0.68907034
2
Properties=species:S:1:pos:R:3:forces:R:3 energy=-2.3035320474952803 pbc="F F F"
Ni       0.00000000       0.00000000       0.00000000       0.00000000       0.00000000       0.65089011
Ni       0.00000000       0.00000000       3.82484848       0.00000000       0.00000000      -0.65089011
2
Properties=species:S:1:pos:R:3:forces:R:3 energy=-2.266424341022179 pbc="F F F"
Ni       0.00000000       0.00000000       0.00000000       0.00000000       0.00000000       0.61134434
Ni       0.00000000       0.00000000       3.88363636       0.00000000       0.00000000      -0.61134434
2
Properties=species:S:1:pos:R:3:forces:R:3 energy=-2.2316650921344294 pbc="F F F"
Ni       0.00000000       0.00000000       0.00000000       0.00000000       0.00000000       0.57117051
Ni       0.00000000       0.00000000       3.94242424       0.00000000       0.00000000      -0.57117051
2
Properties=species:S:1:pos:R:3:forces:R:3 energy=-2.1992656025970185 pbc="F F F"
Ni       0.00000000       0.00000000       0.00000000       0.00000000       0.00000000       0.53118575
Ni       0.00000000       0.00000000       4.00121212       0.00000000       0.00000000      -0.53118575
2
Properties=species:S:1:pos:R:3:forces:R:3 energy=-2.16919194500906 pbc="F F F"
Ni       0.00000000       0.00000000       0.00000000       0.00000000       0.00000000       0.49214590
Ni       0.00000000       0.00000000       4.06000000       0.00000000       0.00000000      -0.49214590
2
Properties=species:S:1:pos:R:3:forces:R:3 energy=-2.1413714864685454 pbc="F F F"
Ni       0.00000000       0.00000000       0.00000000       0.00000000       0.00000000       0.45461375
Ni       0.00000000       0.00000000       4.11878788       0.00000000       0.00000000      -0.45461375
2
Properties=species:S:1:pos:R:3:forces:R:3 energy=-2.1157046194319697 pbc="F F F"
Ni       0.00000000       0.00000000       0.00000000       0.00000000       0.00000000       0.41889048
Ni       0.00000000       0.00000000       4.17757576       0.00000000       0.00000000      -0.41889048
2
Properties=species:S:1:pos:R:3:forces:R:3 energy=-2.0920829362112388 pbc="F F F"
Ni       0.00000000       0.00000000       0.00000000       0.00000000       0.00000000       0.38503110
Ni       0.00000000       0.00000000       4.23636364       0.00000000       0.00000000      -0.38503110
2
Properties=species:S:1:pos:R:3:forces:R:3 energy=-2.0703997107196 pbc="F F F"
Ni       0.00000000       0.00000000       0.00000000       0.00000000       0.00000000       0.35291469
Ni       0.00000000       0.00000000       4.29515152       0.00000000       0.00000000      -0.35291469
2
Properties=species:S:1:pos:R:3:forces:R:3 energy=-2.050558399177116 pbc="F F F"
Ni       0.00000000       0.00000000       0.00000000       0.00000000       0.00000000       0.32236168
Ni       0.00000000       0.00000000       4.35393939       0.00000000       0.00000000      -0.32236168
2
Properties=species:S:1:pos:R:3:forces:R:3 energy=-2.0324699506459933 pbc="F F F"
Ni       0.00000000       0.00000000       0.00000000       0.00000000       0.00000000       0.29325753
Ni       0.00000000       0.00000000       4.41272727       0.00000000       0.00000000      -0.29325753
2
Properties=species:S:1:pos:R:3:forces:R:3 energy=-2.0160483594409566 pbc="F F F"
Ni       0.00000000       0.00000000       0.00000000       0.00000000       0.00000000       0.26568854
Ni       0.00000000       0.00000000       4.47151515       0.00000000       0.00000000      -0.26568854
2
Properties=species:S:1:pos:R:3:forces:R:3 energy=-2.00119447450459 pbc="F F F"
Ni       0.00000000       0.00000000       0.00000000       0.00000000       0.00000000       0.24000230
Ni       0.00000000       0.00000000       4.53030303       0.00000000       0.00000000      -0.24000230
2
Properties=species:S:1:pos:R:3:forces:R:3 energy=-1.987781668950015 pbc="F F F"
Ni       0.00000000       0.00000000       0.00000000       0.00000000       0.00000000       0.21677560
Ni       0.00000000       0.00000000       4.58909091       0.00000000       0.00000000      -0.21677560
2
Properties=species:S:1:pos:R:3:forces:R:3 energy=-1.9756464720442162 pbc="F F F"
Ni       0.00000000       0.00000000       0.00000000       0.00000000       0.00000000       0.19664171
Ni       0.00000000       0.00000000       4.64787879       0.00000000       0.00000000      -0.19664171
2
Properties=species:S:1:pos:R:3:forces:R:3 energy=-1.964592235017668 pbc="F F F"
Ni       0.00000000       0.00000000       0.00000000       0.00000000       0.00000000       0.18002114
Ni       0.00000000       0.00000000       4.70666667       0.00000000       0.00000000      -0.18002114
2
Properties=species:S:1:pos:R:3:forces:R:3 energy=-1.9544117344799685 pbc="F F F"
Ni       0.00000000       0.00000000       0.00000000       0.00000000       0.00000000       0.16687648
Ni       0.00000000       0.00000000       4.76545455       0.00000000       0.00000000      -0.16687648
2
Properties=species:S:1:pos:R:3:forces:R:3 energy=-1.94491491333826 pbc="F F F"
Ni       0.00000000       0.00000000       0.00000000       0.00000000       0.00000000       0.15658867
Ni       0.00000000       0.00000000       4.82424242       0.00000000       0.00000000      -0.15658867
2
Properties=species:S:1:pos:R:3:forces:R:3 energy=-1.9359665045833487 pbc="F F F"
Ni       0.00000000       0.00000000       0.00000000       0.00000000       0.00000000       0.14805076
Ni       0.00000000       0.00000000       4.88303030       0.00000000       0.00000000      -0.14805076
2
Properties=species:S:1:pos:R:3:forces:R:3 energy=-1.9275003015584058 pbc="F F F"
Ni       0.00000000       0.00000000       0.00000000       0.00000000       0.00000000       0.13991410
Ni       0.00000000       0.00000000       4.94181818       0.00000000       0.00000000      -0.13991410
2
Properties=species:S:1:pos:R:3:forces:R:3 energy=-1.9195327394824633 pbc="F F F"
Ni       0.00000000       0.00000000       0.00000000       0.00000000       0.00000000       0.13091554
Ni       0.00000000       0.00000000       5.00060606       0.00000000       0.00000000      -0.13091554
2
Properties=species:S:1:pos:R:3:forces:R:3 energy=-1.9121425403402503 pbc="F F F"
Ni       0.00000000       0.00000000       0.00000000       0.00000000       0.00000000       0.12014292
Ni       0.00000000       0.00000000       5.05939394       0.00000000       0.00000000      -0.12014292
2
Properties=species:S:1:pos:R:3:forces:R:3 energy=-1.9054498005713691 pbc="F F F"
Ni       0.00000000       0.00000000       0.00000000       0.00000000       0.00000000       0.10719360
Ni       0.00000000       0.00000000       5.11818182       0.00000000       0.00000000      -0.10719360
2
Properties=species:S:1:pos:R:3:forces:R:3 energy=-1.8995795490416876 pbc="F F F"
Ni       0.00000000       0.00000000       0.00000000       0.00000000       0.00000000       0.09222021
Ni       0.00000000       0.00000000       5.17696970       0.00000000       0.00000000      -0.09222021
2
Properties=species:S:1:pos:R:3:forces:R:3 energy=-1.8946343158194945 pbc="F F F"
Ni       0.00000000       0.00000000       0.00000000       0.00000000       0.00000000       0.07587305
Ni       0.00000000       0.00000000       5.23575758       0.00000000       0.00000000      -0.07587305
2
Properties=species:S:1:pos:R:3:forces:R:3 energy=-1.8906662435373895 pbc="F F F"
Ni       0.00000000       0.00000000       0.00000000       0.00000000       0.00000000       0.05915701
Ni       0.00000000       0.00000000       5.29454545       0.00000000       0.00000000      -0.05915701
2
Properties=species:S:1:pos:R:3:forces:R:3 energy=-1.8876630503744678 pbc="F F F"
Ni       0.00000000       0.00000000       0.00000000       0.00000000       0.00000000       0.04324324
Ni       0.00000000       0.00000000       5.35333333       0.00000000       0.00000000      -0.04324324
2
Properties=species:S:1:pos:R:3:forces:R:3 energy=-1.8855438909933173 pbc="F F F"
Ni       0.00000000       0.00000000       0.00000000       0.00000000       0.00000000       0.02925688
Ni       0.00000000       0.00000000       5.41212121       0.00000000       0.00000000      -0.02925688
2
Properties=species:S:1:pos:R:3:forces:R:3 energy=-1.8841682112895792 pbc="F F F"
Ni       0.00000000       0.00000000       0.00000000       0.00000000       0.00000000       0.01806132
Ni       0.00000000       0.00000000       5.47090909       0.00000000       0.00000000      -0.01806132
2
Properties=species:S:1:pos:R:3:forces:R:3 energy=-1.8833561280127682 pbc="F F F"
Ni       0.00000000       0.00000000       0.00000000       0.00000000       0.00000000       0.01012284
Ni       0.00000000       0.00000000       5.52969697       0.00000000       0.00000000      -0.01012284
2
Properties=species:S:1:pos:R:3:forces:R:3 energy=-1.8829138361840576 pbc="F F F"
Ni       0.00000000       0.00000000       0.00000000       0.00000000       0.00000000       0.00544229
Ni       0.00000000       0.00000000       5.58848485       0.00000000       0.00000000      -0.00544229
2
Properties=species:S:1:pos:R:3:forces:R:3 energy=-1.8826601052367815 pbc="F F F"
Ni       0.00000000       0.00000000       0.00000000       0.00000000       0.00000000       0.00359660
Ni       0.00000000       0.00000000       5.64727273       0.00000000       0.00000000      -0.00359660
2
Properties=species:S:1:pos:R:3:forces:R:3 energy=-1.8824496883866964 pbc="F F F"
Ni       0.00000000       0.00000000       0.00000000       0.00000000       0.00000000       0.00385247
Ni       0.00000000       0.00000000       5.70606061       0.00000000       0.00000000      -0.00385247
2
Properties=species:S:1:pos:R:3:forces:R:3 energy=-1.8821839797760833 pbc="F F F"
Ni       0.00000000       0.00000000       0.00000000       0.00000000       0.00000000       0.00535030
Ni       0.00000000       0.00000000       5.76484848       0.00000000       0.00000000      -0.00535030
2
Properties=species:S:1:pos:R:3:forces:R:3 energy=-1.8818134002434506 pbc="F F F"
Ni       0.00000000       0.00000000       0.00000000       0.00000000       0.00000000       0.00725464
Ni       0.00000000       0.00000000       5.82363636       0.00000000       0.00000000      -0.00725464
2
Properties=species:S:1:pos:R:3:forces:R:3 energy=-1.8813354947266332 pbc="F F F"
Ni       0.00000000       0.00000000       0.00000000       0.00000000       0.00000000       0.00888658
Ni       0.00000000       0.00000000       5.88242424       0.00000000       0.00000000      -0.00888658
2
Properties=species:S:1:pos:R:3:forces:R:3 energy=-1.8807825946853018 pbc="F F F"
Ni       0.00000000       0.00000000       0.00000000       0.00000000       0.00000000       0.00978883
Ni       0.00000000       0.00000000       5.94121212       0.00000000       0.00000000      -0.00978883
2
Properties=species:S:1:pos:R:3:forces:R:3 energy=-1.8802041386961525 pbc="F F F"
Ni       0.00000000       0.00000000       0.00000000       0.00000000       0.00000000       0.00971282
Ni       0.00000000       0.00000000       6.00000000       0.00000000       0.00000000      -0.00971282
