2
Properties=species:S:1:pos:R:3:forces:R:3 energy=3967.3488478218687 pbc="F F F"
Ni       0.00000000       0.00000000       0.00000000       0.00000000       0.00000000  -62215.39843750
Ni       0.00000000       0.00000000       0.18000000       0.00000000       0.00000000   62215.39843750
2
Properties=species:S:1:pos:R:3:forces:R:3 energy=1707.1227736031187 pbc="F F F"
Ni       0.00000000       0.00000000       0.00000000       0.00000000       0.00000000  -22568.00000000
Ni       0.00000000       0.00000000       0.23878788       0.00000000       0.00000000   22568.00000000
2
Properties=species:S:1:pos:R:3:forces:R:3 energy=823.3237623726501 pbc="F F F"
Ni       0.00000000       0.00000000       0.00000000       0.00000000       0.00000000   -9632.09863281
Ni       0.00000000       0.00000000       0.29757576       0.00000000       0.00000000    9632.09863281
2
Properties=species:S:1:pos:R:3:forces:R:3 energy=427.3190321512085 pbc="F F F"
Ni       0.00000000       0.00000000       0.00000000       0.00000000       0.00000000   -4559.48095703
Ni       0.00000000       0.00000000       0.35636364       0.00000000       0.00000000    4559.48095703
2
Properties=species:S:1:pos:R:3:forces:R:3 energy=233.6831831585207 pbc="F F F"
Ni       0.00000000       0.00000000       0.00000000       0.00000000       0.00000000   -2311.56030273
Ni       0.00000000       0.00000000       0.41515152       0.00000000       0.00000000    2311.56030273
2
Properties=species:S:1:pos:R:3:forces:R:3 energy=133.25706623100044 pbc="F F F"
Ni       0.00000000       0.00000000       0.00000000       0.00000000       0.00000000   -1229.76220703
Ni       0.00000000       0.00000000       0.47393939       0.00000000       0.00000000    1229.76220703
2
Properties=species:S:1:pos:R:3:forces:R:3 energy=78.88939047826084 pbc="F F F"
Ni       0.00000000       0.00000000       0.00000000       0.00000000       0.00000000    -679.42901611
Ni       0.00000000       0.00000000       0.53272727       0.00000000       0.00000000     679.42901611
2
Properties=species:S:1:pos:R:3:forces:R:3 energy=48.33948665614926 pbc="F F F"
Ni       0.00000000       0.00000000       0.00000000       0.00000000       0.00000000    -390.43173218
Ni       0.00000000       0.00000000       0.59151515       0.00000000       0.00000000     390.43173218
2
Properties=species:S:1:pos:R:3:forces:R:3 energy=30.31038250889237 pbc="F F F"
Ni       0.00000000       0.00000000       0.00000000       0.00000000       0.00000000    -239.77267456
Ni       0.00000000       0.00000000       0.65030303       0.00000000       0.00000000     239.77267456
2
Properties=species:S:1:pos:R:3:forces:R:3 energy=18.64743403037464 pbc="F F F"
Ni       0.00000000       0.00000000       0.00000000       0.00000000       0.00000000    -166.15689087
Ni       0.00000000       0.00000000       0.70909091       0.00000000       0.00000000     166.15689087
2
Properties=species:S:1:pos:R:3:forces:R:3 energy=10.261666290073071 pbc="F F F"
Ni       0.00000000       0.00000000       0.00000000       0.00000000       0.00000000    -118.73494720
Ni       0.00000000       0.00000000       0.76787879       0.00000000       0.00000000     118.73494720
2
Properties=species:S:1:pos:R:3:forces:R:3 energy=4.791281983734389 pbc="F F F"
Ni       0.00000000       0.00000000       0.00000000       0.00000000       0.00000000     -67.56267548
Ni       0.00000000       0.00000000       0.82666667       0.00000000       0.00000000      67.56267548
2
Properties=species:S:1:pos:R:3:forces:R:3 energy=2.3151495258308095 pbc="F F F"
Ni       0.00000000       0.00000000       0.00000000       0.00000000       0.00000000     -16.70462799
Ni       0.00000000       0.00000000       0.88545455       0.00000000       0.00000000      16.70462799
2
Properties=species:S:1:pos:R:3:forces:R:3 energy=2.542051639929567 pbc="F F F"
Ni       0.00000000       0.00000000       0.00000000       0.00000000       0.00000000      19.22580910
Ni       0.00000000       0.00000000       0.94424242       0.00000000       0.00000000     -19.22580910
2
Properties=species:S:1:pos:R:3:forces:R:3 energy=3.8646981056036585 pbc="F F F"
Ni       0.00000000       0.00000000       0.00000000       0.00000000       0.00000000      20.40652847
Ni       0.00000000       0.00000000       1.00303030       0.00000000       0.00000000     -20.40652847
2
Properties=species:S:1:pos:R:3:forces:R:3 energy=4.564260781747759 pbc="F F F"
Ni       0.00000000       0.00000000       0.00000000       0.00000000       0.00000000       2.62396574
Ni       0.00000000       0.00000000       1.06181818       0.00000000       0.00000000      -2.62396574
2
Properties=species:S:1:pos:R:3:forces:R:3 energy=4.260638060466163 pbc="F F F"
Ni       0.00000000       0.00000000       0.00000000       0.00000000       0.00000000     -11.68736839
Ni       0.00000000       0.00000000       1.12060606       0.00000000       0.00000000      11.68736839
2
Properties=species:S:1:pos:R:3:forces:R:3 energy=3.3074915771317666 pbc="F F F"
Ni       0.00000000       0.00000000       0.00000000       0.00000000       0.00000000     -20.07071114
Ni       0.00000000       0.00000000       1.17939394       0.00000000       0.00000000      20.07071114
2
Properties=species:S:1:pos:R:3:forces:R:3 energy=1.967912994125524 pbc="F F F"
Ni       0.00000000       0.00000000       0.00000000       0.00000000       0.00000000     -24.78840256
Ni       0.00000000       0.00000000       1.23818182       0.00000000       0.00000000      24.78840256
2
Properties=species:S:1:pos:R:3:forces:R:3 energy=0.5096884546578309 pbc="F F F"
Ni       0.00000000       0.00000000       0.00000000       0.00000000       0.00000000     -23.72728539
Ni       0.00000000       0.00000000       1.29696970       0.00000000       0.00000000      23.72728539
2
Properties=species:S:1:pos:R:3:forces:R:3 energy=-0.7232366212317433 pbc="F F F"
Ni       0.00000000       0.00000000       0.00000000       0.00000000       0.00000000     -17.74273682
Ni       0.00000000       0.00000000       1.35575758       0.00000000       0.00000000      17.74273682
2
Properties=species:S:1:pos:R:3:forces:R:3 energy=-1.5622136349647604 pbc="F F F"
Ni       0.00000000       0.00000000       0.00000000       0.00000000       0.00000000     -10.97400665
Ni       0.00000000       0.00000000       1.41454545       0.00000000       0.00000000      10.97400665
2
Properties=species:S:1:pos:R:3:forces:R:3 energy=-2.0547628810967176 pbc="F F F"
Ni       0.00000000       0.00000000       0.00000000       0.00000000       0.00000000      -6.22979498
Ni       0.00000000       0.00000000       1.47333333       0.00000000       0.00000000       6.22979498
2
Properties=species:S:1:pos:R:3:forces:R:3 energy=-2.3472271741802495 pbc="F F F"
Ni       0.00000000       0.00000000       0.00000000       0.00000000       0.00000000      -4.12205505
Ni       0.00000000       0.00000000       1.53212121       0.00000000       0.00000000       4.12205505
2
Properties=species:S:1:pos:R:3:forces:R:3 energy=-2.576569323980966 pbc="F F F"
Ni       0.00000000       0.00000000       0.00000000       0.00000000       0.00000000      -3.89765930
Ni       0.00000000       0.00000000       1.59090909       0.00000000       0.00000000       3.89765930
2
Properties=species:S:1:pos:R:3:forces:R:3 energy=-2.8193574086682345 pbc="F F F"
Ni       0.00000000       0.00000000       0.00000000       0.00000000       0.00000000      -4.38993168
Ni       0.00000000       0.00000000       1.64969697       0.00000000       0.00000000       4.38993168
2
Properties=species:S:1:pos:R:3:forces:R:3 energy=-3.088190324121883 pbc="F F F"
Ni       0.00000000       0.00000000       0.00000000       0.00000000       0.00000000      -4.67074871
Ni       0.00000000       0.00000000       1.70848485       0.00000000       0.00000000       4.67074871
2
Properties=species:S:1:pos:R:3:forces:R:3 energy=-3.35641831468489 pbc="F F F"
Ni       0.00000000       0.00000000       0.00000000       0.00000000       0.00000000      -4.35000038
Ni       0.00000000       0.00000000       1.76727273       0.00000000       0.00000000       4.35000038
2
Properties=species:S:1:pos:R:3:forces:R:3 energy=-3.5891436170243263 pbc="F F F"
Ni       0.00000000       0.00000000       0.00000000       0.00000000       0.00000000      -3.49927592
Ni       0.00000000       0.00000000       1.82606061       0.00000000       0.00000000       3.49927592
2
Properties=species:S:1:pos:R:3:forces:R:3 energy=-3.762624489005382 pbc="F F F"
Ni       0.00000000       0.00000000       0.00000000       0.00000000       0.00000000      -2.38069439
Ni       0.00000000       0.00000000       1.88484848       0.00000000       0.00000000       2.38069439
2
Properties=species:S:1:pos:R:3:forces:R:3 energy=-3.868665331910493 pbc="F F F"
Ni       0.00000000       0.00000000       0.00000000       0.00000000       0.00000000      -1.23912811
Ni       0.00000000       0.00000000       1.94363636       0.00000000       0.00000000       1.23912811
2
Properties=species:S:1:pos:R:3:forces:R:3 energy=-3.911055966558809 pbc="F F F"
Ni       0.00000000       0.00000000       0.00000000       0.00000000       0.00000000      -0.23463885
Ni       0.00000000       0.00000000       2.00242424       0.00000000       0.00000000       0.23463885
2
Properties=species:S:1:pos:R:3:forces:R:3 energy=-3.900491221628186 pbc="F F F"
Ni       0.00000000       0.00000000       0.00000000       0.00000000       0.00000000       0.55580968
Ni       0.00000000       0.00000000       2.06121212       0.00000000       0.00000000      -0.55580968
2
Properties=species:S:1:pos:R:3:forces:R:3 energy=-3.8501402160635636 pbc="F F F"
Ni       0.00000000       0.00000000       0.00000000       0.00000000       0.00000000       1.12139177
Ni       0.00000000       0.00000000       2.12000000       0.00000000       0.00000000      -1.12139177
2
Properties=species:S:1:pos:R:3:forces:R:3 energy=-3.772480843102579 pbc="F F F"
Ni       0.00000000       0.00000000       0.00000000       0.00000000       0.00000000       1.49126339
Ni       0.00000000       0.00000000       2.17878788       0.00000000       0.00000000      -1.49126339
2
Properties=species:S:1:pos:R:3:forces:R:3 energy=-3.6779422778131896 pbc="F F F"
Ni       0.00000000       0.00000000       0.00000000       0.00000000       0.00000000       1.70025897
Ni       0.00000000       0.00000000       2.23757576       0.00000000       0.00000000      -1.70025897
2
Properties=species:S:1:pos:R:3:forces:R:3 energy=-3.5753692213152104 pbc="F F F"
Ni       0.00000000       0.00000000       0.00000000       0.00000000       0.00000000       1.76621854
Ni       0.00000000       0.00000000       2.29636364       0.00000000       0.00000000      -1.76621854
2
Properties=species:S:1:pos:R:3:forces:R:3 energy=-3.472787323782781 pbc="F F F"
Ni       0.00000000       0.00000000       0.00000000       0.00000000       0.00000000       1.70602763
Ni       0.00000000       0.00000000       2.35515152       0.00000000       0.00000000      -1.70602763
2
Properties=species:S:1:pos:R:3:forces:R:3 energy=-3.376064876285545 pbc="F F F"
Ni       0.00000000       0.00000000       0.00000000       0.00000000       0.00000000       1.58078623
Ni       0.00000000       0.00000000       2.41393939       0.00000000       0.00000000      -1.58078623
2
Properties=species:S:1:pos:R:3:forces:R:3 energy=-3.2870820554473723 pbc="F F F"
Ni       0.00000000       0.00000000       0.00000000       0.00000000       0.00000000       1.44254243
Ni       0.00000000       0.00000000       2.47272727       0.00000000       0.00000000      -1.44254243
2
Properties=species:S:1:pos:R:3:forces:R:3 energy=-3.207540091678965 pbc="F F F"
Ni       0.00000000       0.00000000       0.00000000       0.00000000       0.00000000       1.25130570
Ni       0.00000000       0.00000000       2.53151515       0.00000000       0.00000000      -1.25130570
2
Properties=species:S:1:pos:R:3:forces:R:3 energy=-3.1411217998798966 pbc="F F F"
Ni       0.00000000       0.00000000       0.00000000       0.00000000       0.00000000       1.00308514
Ni       0.00000000       0.00000000       2.59030303       0.00000000       0.00000000      -1.00308514
2
Properties=species:S:1:pos:R:3:forces:R:3 energy=-3.0895728359435037 pbc="F F F"
Ni       0.00000000       0.00000000       0.00000000       0.00000000       0.00000000       0.75575292
Ni       0.00000000       0.00000000       2.64909091       0.00000000       0.00000000      -0.75575292
2
Properties=species:S:1:pos:R:3:forces:R:3 energy=-3.0512545889564002 pbc="F F F"
Ni       0.00000000       0.00000000       0.00000000       0.00000000       0.00000000       0.55892724
Ni       0.00000000       0.00000000       2.70787879       0.00000000       0.00000000      -0.55892724
2
Properties=species:S:1:pos:R:3:forces:R:3 energy=-3.0224157114755092 pbc="F F F"
Ni       0.00000000       0.00000000       0.00000000       0.00000000       0.00000000       0.43488517
Ni       0.00000000       0.00000000       2.76666667       0.00000000       0.00000000      -0.43488517
2
Properties=species:S:1:pos:R:3:forces:R:3 energy=-2.998683350562031 pbc="F F F"
Ni       0.00000000       0.00000000       0.00000000       0.00000000       0.00000000       0.38383564
Ni       0.00000000       0.00000000       2.82545455       0.00000000       0.00000000      -0.38383564
2
Properties=species:S:1:pos:R:3:forces:R:3 energy=-2.9761164885756295 pbc="F F F"
Ni       0.00000000       0.00000000       0.00000000       0.00000000       0.00000000       0.39229310
Ni       0.00000000       0.00000000       2.88424242       0.00000000       0.00000000      -0.39229310
2
Properties=species:S:1:pos:R:3:forces:R:3 energy=-2.9517619016134566 pbc="F F F"
Ni       0.00000000       0.00000000       0.00000000       0.00000000       0.00000000       0.44147539
Ni       0.00000000       0.00000000       2.94303030       0.00000000       0.00000000      -0.44147539
2
Properties=species:S:1:pos:R:3:forces:R:3 energy=-2.9237635727128297 pbc="F F F"
Ni       0.00000000       0.00000000       0.00000000       0.00000000       0.00000000       0.51357514
Ni       0.00000000       0.00000000       3.00181818       0.00000000       0.00000000      -0.51357514
2
Properties=species:S:1:pos:R:3:forces:R:3 energy=-2.8912092099953615 pbc="F F F"
Ni       0.00000000       0.00000000       0.00000000       0.00000000       0.00000000       0.59443605
Ni       0.00000000       0.00000000       3.06060606       0.00000000       0.00000000      -0.59443605
2
Properties=species:S:1:pos:R:3:forces:R:3 energy=-2.8539099192296193 pbc="F F F"
Ni       0.00000000       0.00000000       0.00000000       0.00000000       0.00000000       0.67346323
Ni       0.00000000       0.00000000       3.11939394       0.00000000       0.00000000      -0.67346323
2
Properties=species:S:1:pos:R:3:forces:R:3 energy=-2.812218594566199 pbc="F F F"
Ni       0.00000000       0.00000000       0.00000000       0.00000000       0.00000000       0.74273330
Ni       0.00000000       0.00000000       3.17818182       0.00000000       0.00000000      -0.74273330
2
Properties=species:S:1:pos:R:3:forces:R:3 energy=-2.766885375858249 pbc="F F F"
Ni       0.00000000       0.00000000       0.00000000       0.00000000       0.00000000       0.79666203
Ni       0.00000000       0.00000000       3.23696970       0.00000000       0.00000000      -0.79666203
2
Properties=species:S:1:pos:R:3:forces:R:3 energy=-2.7189113103390565 pbc="F F F"
Ni       0.00000000       0.00000000       0.00000000       0.00000000       0.00000000       0.83227217
Ni       0.00000000       0.00000000       3.29575758       0.00000000       0.00000000      -0.83227217
2
Properties=species:S:1:pos:R:3:forces:R:3 energy=-2.669394311213276 pbc="F F F"
Ni       0.00000000       0.00000000       0.00000000       0.00000000       0.00000000       0.84937429
Ni       0.00000000       0.00000000       3.35454545       0.00000000       0.00000000      -0.84937429
2
Properties=species:S:1:pos:R:3:forces:R:3 energy=-2.6193663177674025 pbc="F F F"
Ni       0.00000000       0.00000000       0.00000000       0.00000000       0.00000000       0.85015774
Ni       0.00000000       0.00000000       3.41333333       0.00000000       0.00000000      -0.85015774
2
Properties=species:S:1:pos:R:3:forces:R:3 energy=-2.569686317455744 pbc="F F F"
Ni       0.00000000       0.00000000       0.00000000       0.00000000       0.00000000       0.83818042
Ni       0.00000000       0.00000000       3.47212121       0.00000000       0.00000000      -0.83818042
2
Properties=species:S:1:pos:R:3:forces:R:3 energy=-2.5209929806306555 pbc="F F F"
Ni       0.00000000       0.00000000       0.00000000       0.00000000       0.00000000       0.81718481
Ni       0.00000000       0.00000000       3.53090909       0.00000000       0.00000000      -0.81718481
2
Properties=species:S:1:pos:R:3:forces:R:3 energy=-2.473721596933202 pbc="F F F"
Ni       0.00000000       0.00000000       0.00000000       0.00000000       0.00000000       0.79020500
Ni       0.00000000       0.00000000       3.58969697       0.00000000       0.00000000      -0.79020500
2
Properties=species:S:1:pos:R:3:forces:R:3 energy=-2.4281613907868063 pbc="F F F"
Ni       0.00000000       0.00000000       0.00000000       0.00000000       0.00000000       0.75922680
Ni       0.00000000       0.00000000       3.64848485       0.00000000       0.00000000      -0.75922680
2
Properties=species:S:1:pos:R:3:forces:R:3 energy=-2.3845122650190778 pbc="F F F"
Ni       0.00000000       0.00000000       0.00000000       0.00000000       0.00000000       0.72532904
Ni       0.00000000       0.00000000       3.70727273       0.00000000       0.00000000      -0.72532904
2
Properties=species:S:1:pos:R:3:forces:R:3 energy=-2.342926574798306 pbc="F F F"
Ni       0.00000000       0.00000000       0.00000000       0.00000000       0.00000000       0.68906999
Ni       0.00000000       0.00000000       3.76606061       0.00000000       0.00000000      -0.68906999
2
Properties=species:S:1:pos:R:3:forces:R:3 energy=-2.303531809076701 pbc="F F F"
Ni       0.00000000       0.00000000       0.00000000       0.00000000       0.00000000       0.65088952
Ni       0.00000000       0.00000000       3.82484848       0.00000000       0.00000000      -0.65088952
2
Properties=species:S:1:pos:R:3:forces:R:3 energy=-2.2664245794407583 pbc="F F F"
Ni       0.00000000       0.00000000       0.00000000       0.00000000       0.00000000       0.61134487
Ni       0.00000000       0.00000000       3.88363636       0.00000000       0.00000000      -0.61134487
2
Properties=species:S:1:pos:R:3:forces:R:3 energy=-2.2316648537158503 pbc="F F F"
Ni       0.00000000       0.00000000       0.00000000       0.00000000       0.00000000       0.57116979
Ni       0.00000000       0.00000000       3.94242424       0.00000000       0.00000000      -0.57116979
2
Properties=species:S:1:pos:R:3:forces:R:3 energy=-2.1992653641784394 pbc="F F F"
Ni       0.00000000       0.00000000       0.00000000       0.00000000       0.00000000       0.53118473
Ni       0.00000000       0.00000000       4.00121212       0.00000000       0.00000000      -0.53118473
2
Properties=species:S:1:pos:R:3:forces:R:3 energy=-2.169191706590481 pbc="F F F"
Ni       0.00000000       0.00000000       0.00000000       0.00000000       0.00000000       0.49214453
Ni       0.00000000       0.00000000       4.06000000       0.00000000       0.00000000      -0.49214453
2
Properties=species:S:1:pos:R:3:forces:R:3 energy=-2.141371009631387 pbc="F F F"
Ni       0.00000000       0.00000000       0.00000000       0.00000000       0.00000000       0.45461333
Ni       0.00000000       0.00000000       4.11878788       0.00000000       0.00000000      -0.45461333
2
Properties=species:S:1:pos:R:3:forces:R:3 energy=-2.115704628935436 pbc="F F F"
Ni       0.00000000       0.00000000       0.00000000       0.00000000       0.00000000       0.41889006
Ni       0.00000000       0.00000000       4.17757576       0.00000000       0.00000000      -0.41889006
2
Properties=species:S:1:pos:R:3:forces:R:3 energy=-2.0920829552181717 pbc="F F F"
Ni       0.00000000       0.00000000       0.00000000       0.00000000       0.00000000       0.38503122
Ni       0.00000000       0.00000000       4.23636364       0.00000000       0.00000000      -0.38503122
2
Properties=species:S:1:pos:R:3:forces:R:3 energy=-2.070399472301021 pbc="F F F"
Ni       0.00000000       0.00000000       0.00000000       0.00000000       0.00000000       0.35291451
Ni       0.00000000       0.00000000       4.29515152       0.00000000       0.00000000      -0.35291451
2
Properties=species:S:1:pos:R:3:forces:R:3 energy=-2.050558399177116 pbc="F F F"
Ni       0.00000000       0.00000000       0.00000000       0.00000000       0.00000000       0.32236177
Ni       0.00000000       0.00000000       4.35393939       0.00000000       0.00000000      -0.32236177
2
Properties=species:S:1:pos:R:3:forces:R:3 energy=-2.0324699696529263 pbc="F F F"
Ni       0.00000000       0.00000000       0.00000000       0.00000000       0.00000000       0.29325783
Ni       0.00000000       0.00000000       4.41272727       0.00000000       0.00000000      -0.29325783
2
Properties=species:S:1:pos:R:3:forces:R:3 energy=-2.016048240231667 pbc="F F F"
Ni       0.00000000       0.00000000       0.00000000       0.00000000       0.00000000       0.26568830
Ni       0.00000000       0.00000000       4.47151515       0.00000000       0.00000000      -0.26568830
2
Properties=species:S:1:pos:R:3:forces:R:3 energy=-2.0011943552953007 pbc="F F F"
Ni       0.00000000       0.00000000       0.00000000       0.00000000       0.00000000       0.24000174
Ni       0.00000000       0.00000000       4.53030303       0.00000000       0.00000000      -0.24000174
2
Properties=species:S:1:pos:R:3:forces:R:3 energy=-1.9877816879569479 pbc="F F F"
Ni       0.00000000       0.00000000       0.00000000       0.00000000       0.00000000       0.21677536
Ni       0.00000000       0.00000000       4.58909091       0.00000000       0.00000000      -0.21677536
2
Properties=species:S:1:pos:R:3:forces:R:3 energy=-1.9756463528349266 pbc="F F F"
Ni       0.00000000       0.00000000       0.00000000       0.00000000       0.00000000       0.19664119
Ni       0.00000000       0.00000000       4.64787879       0.00000000       0.00000000      -0.19664119
2
Properties=species:S:1:pos:R:3:forces:R:3 energy=-1.9645921158083786 pbc="F F F"
Ni       0.00000000       0.00000000       0.00000000       0.00000000       0.00000000       0.18002088
Ni       0.00000000       0.00000000       4.70666667       0.00000000       0.00000000      -0.18002088
2
Properties=species:S:1:pos:R:3:forces:R:3 energy=-1.9544117344799685 pbc="F F F"
Ni       0.00000000       0.00000000       0.00000000       0.00000000       0.00000000       0.16687679
Ni       0.00000000       0.00000000       4.76545455       0.00000000       0.00000000      -0.16687679
2
Properties=species:S:1:pos:R:3:forces:R:3 energy=-1.9449150325475495 pbc="F F F"
Ni       0.00000000       0.00000000       0.00000000       0.00000000       0.00000000       0.15658937
Ni       0.00000000       0.00000000       4.82424242       0.00000000       0.00000000      -0.15658937
2
Properties=species:S:1:pos:R:3:forces:R:3 energy=-1.9359665045833487 pbc="F F F"
Ni       0.00000000       0.00000000       0.00000000       0.00000000       0.00000000       0.14805046
Ni       0.00000000       0.00000000       4.88303030       0.00000000       0.00000000      -0.14805046
2
Properties=species:S:1:pos:R:3:forces:R:3 energy=-1.9275003015584058 pbc="F F F"
Ni       0.00000000       0.00000000       0.00000000       0.00000000       0.00000000       0.13991401
Ni       0.00000000       0.00000000       4.94181818       0.00000000       0.00000000      -0.13991401
2
Properties=species:S:1:pos:R:3:forces:R:3 energy=-1.9195323818545946 pbc="F F F"
Ni       0.00000000       0.00000000       0.00000000       0.00000000       0.00000000       0.13091651
Ni       0.00000000       0.00000000       5.00060606       0.00000000       0.00000000      -0.13091651
2
Properties=species:S:1:pos:R:3:forces:R:3 energy=-1.9121425403402503 pbc="F F F"
Ni       0.00000000       0.00000000       0.00000000       0.00000000       0.00000000       0.12014288
Ni       0.00000000       0.00000000       5.05939394       0.00000000       0.00000000      -0.12014288
2
Properties=species:S:1:pos:R:3:forces:R:3 energy=-1.9054494429435005 pbc="F F F"
Ni       0.00000000       0.00000000       0.00000000       0.00000000       0.00000000       0.10719234
Ni       0.00000000       0.00000000       5.11818182       0.00000000       0.00000000      -0.10719234
2
Properties=species:S:1:pos:R:3:forces:R:3 energy=-1.899579556961243 pbc="F F F"
Ni       0.00000000       0.00000000       0.00000000       0.00000000       0.00000000       0.09222029
Ni       0.00000000       0.00000000       5.17696970       0.00000000       0.00000000      -0.09222029
2
Properties=species:S:1:pos:R:3:forces:R:3 energy=-1.8946343158194945 pbc="F F F"
Ni       0.00000000       0.00000000       0.00000000       0.00000000       0.00000000       0.07587290
Ni       0.00000000       0.00000000       5.23575758       0.00000000       0.00000000      -0.07587290
2
Properties=species:S:1:pos:R:3:forces:R:3 energy=-1.890666362746679 pbc="F F F"
Ni       0.00000000       0.00000000       0.00000000       0.00000000       0.00000000       0.05915667
Ni       0.00000000       0.00000000       5.29454545       0.00000000       0.00000000      -0.05915667
2
Properties=species:S:1:pos:R:3:forces:R:3 energy=-1.8876630582940233 pbc="F F F"
Ni       0.00000000       0.00000000       0.00000000       0.00000000       0.00000000       0.04324334
Ni       0.00000000       0.00000000       5.35333333       0.00000000       0.00000000      -0.04324334
2
Properties=species:S:1:pos:R:3:forces:R:3 energy=-1.8855437717840278 pbc="F F F"
Ni       0.00000000       0.00000000       0.00000000       0.00000000       0.00000000       0.02925534
Ni       0.00000000       0.00000000       5.41212121       0.00000000       0.00000000      -0.02925534
2
Properties=species:S:1:pos:R:3:forces:R:3 energy=-1.8841682112895792 pbc="F F F"
Ni       0.00000000       0.00000000       0.00000000       0.00000000       0.00000000       0.01806137
Ni       0.00000000       0.00000000       5.47090909       0.00000000       0.00000000      -0.01806137
2
Properties=species:S:1:pos:R:3:forces:R:3 energy=-1.8833561375162347 pbc="F F F"
Ni       0.00000000       0.00000000       0.00000000       0.00000000       0.00000000       0.01012289
Ni       0.00000000       0.00000000       5.52969697       0.00000000       0.00000000      -0.01012289
2
Properties=species:S:1:pos:R:3:forces:R:3 energy=-1.8829138361840576 pbc="F F F"
Ni       0.00000000       0.00000000       0.00000000       0.00000000       0.00000000       0.00544227
Ni       0.00000000       0.00000000       5.58848485       0.00000000       0.00000000      -0.00544227
2
Properties=species:S:1:pos:R:3:forces:R:3 energy=-1.8826605820739397 pbc="F F F"
Ni       0.00000000       0.00000000       0.00000000       0.00000000       0.00000000       0.00359442
Ni       0.00000000       0.00000000       5.64727273       0.00000000       0.00000000      -0.00359442
2
Properties=species:S:1:pos:R:3:forces:R:3 energy=-1.8824496963062518 pbc="F F F"
Ni       0.00000000       0.00000000       0.00000000       0.00000000       0.00000000       0.00385252
Ni       0.00000000       0.00000000       5.70606061       0.00000000       0.00000000      -0.00385252
2
Properties=species:S:1:pos:R:3:forces:R:3 energy=-1.8821839797760833 pbc="F F F"
Ni       0.00000000       0.00000000       0.00000000       0.00000000       0.00000000       0.00535005
Ni       0.00000000       0.00000000       5.76484848       0.00000000       0.00000000      -0.00535005
2
Properties=species:S:1:pos:R:3:forces:R:3 energy=-1.8818131618248715 pbc="F F F"
Ni       0.00000000       0.00000000       0.00000000       0.00000000       0.00000000       0.00725536
Ni       0.00000000       0.00000000       5.82363636       0.00000000       0.00000000      -0.00725536
2
Properties=species:S:1:pos:R:3:forces:R:3 energy=-1.881335498686411 pbc="F F F"
Ni       0.00000000       0.00000000       0.00000000       0.00000000       0.00000000       0.00888741
Ni       0.00000000       0.00000000       5.88242424       0.00000000       0.00000000      -0.00888741
2
Properties=species:S:1:pos:R:3:forces:R:3 energy=-1.8807825946853018 pbc="F F F"
Ni       0.00000000       0.00000000       0.00000000       0.00000000       0.00000000       0.00978810
Ni       0.00000000       0.00000000       5.94121212       0.00000000       0.00000000      -0.00978810
2
Properties=species:S:1:pos:R:3:forces:R:3 energy=-1.8802041386961525 pbc="F F F"
Ni       0.00000000       0.00000000       0.00000000       0.00000000       0.00000000       0.00971282
Ni       0.00000000       0.00000000       6.00000000       0.00000000       0.00000000      -0.00971282
