2
Properties=species:S:1:pos:R:3:forces:R:3 energy=21099.59638822352 pbc="F F F"
Np       0.00000000       0.00000000       0.00000000       0.00000000       0.00000000 -381659.78125000
Np       0.00000000       0.00000000       0.18000000       0.00000000       0.00000000  381659.78125000
2
Properties=species:S:1:pos:R:3:forces:R:3 energy=7907.58613431727 pbc="F F F"
Np       0.00000000       0.00000000       0.00000000       0.00000000       0.00000000 -122823.02343750
Np       0.00000000       0.00000000       0.23878788       0.00000000       0.00000000  122823.02343750
2
Properties=species:S:1:pos:R:3:forces:R:3 energy=3337.33613431727 pbc="F F F"
Np       0.00000000       0.00000000       0.00000000       0.00000000       0.00000000  -46434.10937500
Np       0.00000000       0.00000000       0.29757576       0.00000000       0.00000000   46434.10937500
2
Properties=species:S:1:pos:R:3:forces:R:3 energy=1527.7158950594574 pbc="F F F"
Np       0.00000000       0.00000000       0.00000000       0.00000000       0.00000000  -19434.79101562
Np       0.00000000       0.00000000       0.35636364       0.00000000       0.00000000   19434.79101562
2
Properties=species:S:1:pos:R:3:forces:R:3 energy=744.0369399813324 pbc="F F F"
Np       0.00000000       0.00000000       0.00000000       0.00000000       0.00000000   -8775.13867188
Np       0.00000000       0.00000000       0.41515152       0.00000000       0.00000000    8775.13867188
2
Properties=species:S:1:pos:R:3:forces:R:3 energy=379.984358194223 pbc="F F F"
Np       0.00000000       0.00000000       0.00000000       0.00000000       0.00000000   -4221.23388672
Np       0.00000000       0.00000000       0.47393939       0.00000000       0.00000000    4221.23388672
2
Properties=species:S:1:pos:R:3:forces:R:3 energy=200.41886749690931 pbc="F F F"
Np       0.00000000       0.00000000       0.00000000       0.00000000       0.00000000   -2146.12207031
Np       0.00000000       0.00000000       0.53272727       0.00000000       0.00000000    2146.12207031
2
Properties=species:S:1:pos:R:3:forces:R:3 energy=107.0857910578724 pbc="F F F"
Np       0.00000000       0.00000000       0.00000000       0.00000000       0.00000000   -1145.05493164
Np       0.00000000       0.00000000       0.59151515       0.00000000       0.00000000    1145.05493164
2
Properties=species:S:1:pos:R:3:forces:R:3 energy=56.326719758459895 pbc="F F F"
Np       0.00000000       0.00000000       0.00000000       0.00000000       0.00000000    -636.68292236
Np       0.00000000       0.00000000       0.65030303       0.00000000       0.00000000     636.68292236
2
Properties=species:S:1:pos:R:3:forces:R:3 energy=27.640074326675123 pbc="F F F"
Np       0.00000000       0.00000000       0.00000000       0.00000000       0.00000000    -366.58929443
Np       0.00000000       0.00000000       0.70909091       0.00000000       0.00000000     366.58929443
2
Properties=species:S:1:pos:R:3:forces:R:3 energy=10.888114639996505 pbc="F F F"
Np       0.00000000       0.00000000       0.00000000       0.00000000       0.00000000    -217.59872437
Np       0.00000000       0.00000000       0.76787879       0.00000000       0.00000000     217.59872437
2
Properties=species:S:1:pos:R:3:forces:R:3 energy=0.8096331432002101 pbc="F F F"
Np       0.00000000       0.00000000       0.00000000       0.00000000       0.00000000    -133.06550598
Np       0.00000000       0.00000000       0.82666667       0.00000000       0.00000000     133.06550598
2
Properties=species:S:1:pos:R:3:forces:R:3 energy=-5.449627709318062 pbc="F F F"
Np       0.00000000       0.00000000       0.00000000       0.00000000       0.00000000     -84.29193878
Np       0.00000000       0.00000000       0.88545455       0.00000000       0.00000000      84.29193878
2
Properties=species:S:1:pos:R:3:forces:R:3 energy=-9.499382450957528 pbc="F F F"
Np       0.00000000       0.00000000       0.00000000       0.00000000       0.00000000     -56.05960464
Np       0.00000000       0.00000000       0.94424242       0.00000000       0.00000000      56.05960464
2
Properties=species:S:1:pos:R:3:forces:R:3 energy=-12.276273665151297 pbc="F F F"
Np       0.00000000       0.00000000       0.00000000       0.00000000       0.00000000     -39.95392990
Np       0.00000000       0.00000000       1.00303030       0.00000000       0.00000000      39.95392990
2
Properties=species:S:1:pos:R:3:forces:R:3 energy=-14.33862517405396 pbc="F F F"
Np       0.00000000       0.00000000       0.00000000       0.00000000       0.00000000     -31.13074303
Np       0.00000000       0.00000000       1.06181818       0.00000000       0.00000000      31.13074303
2
Properties=species:S:1:pos:R:3:forces:R:3 energy=-16.016409206802525 pbc="F F F"
Np       0.00000000       0.00000000       0.00000000       0.00000000       0.00000000     -26.38292885
Np       0.00000000       0.00000000       1.12060606       0.00000000       0.00000000      26.38292885
2
Properties=species:S:1:pos:R:3:forces:R:3 energy=-17.460404470487337 pbc="F F F"
Np       0.00000000       0.00000000       0.00000000       0.00000000       0.00000000     -22.64288902
Np       0.00000000       0.00000000       1.17939394       0.00000000       0.00000000      22.64288902
2
Properties=species:S:1:pos:R:3:forces:R:3 energy=-18.64341877329696 pbc="F F F"
Np       0.00000000       0.00000000       0.00000000       0.00000000       0.00000000     -17.19412613
Np       0.00000000       0.00000000       1.23818182       0.00000000       0.00000000      17.19412613
2
Properties=species:S:1:pos:R:3:forces:R:3 energy=-19.43488452655836 pbc="F F F"
Np       0.00000000       0.00000000       0.00000000       0.00000000       0.00000000      -9.38426590
Np       0.00000000       0.00000000       1.29696970       0.00000000       0.00000000       9.38426590
2
Properties=species:S:1:pos:R:3:forces:R:3 energy=-19.722086823431304 pbc="F F F"
Np       0.00000000       0.00000000       0.00000000       0.00000000       0.00000000      -0.40701160
Np       0.00000000       0.00000000       1.35575758       0.00000000       0.00000000       0.40701160
2
Properties=species:S:1:pos:R:3:forces:R:3 energy=-19.519759843405247 pbc="F F F"
Np       0.00000000       0.00000000       0.00000000       0.00000000       0.00000000       6.74840021
Np       0.00000000       0.00000000       1.41454545       0.00000000       0.00000000      -6.74840021
2
Properties=species:S:1:pos:R:3:forces:R:3 energy=-18.99879620056398 pbc="F F F"
Np       0.00000000       0.00000000       0.00000000       0.00000000       0.00000000      10.41865063
Np       0.00000000       0.00000000       1.47333333       0.00000000       0.00000000     -10.41865063
2
Properties=species:S:1:pos:R:3:forces:R:3 energy=-18.346037707573725 pbc="F F F"
Np       0.00000000       0.00000000       0.00000000       0.00000000       0.00000000      11.48392677
Np       0.00000000       0.00000000       1.53212121       0.00000000       0.00000000     -11.48392677
2
Properties=species:S:1:pos:R:3:forces:R:3 energy=-17.672989695459286 pbc="F F F"
Np       0.00000000       0.00000000       0.00000000       0.00000000       0.00000000      11.26719856
Np       0.00000000       0.00000000       1.59090909       0.00000000       0.00000000     -11.26719856
2
Properties=species:S:1:pos:R:3:forces:R:3 energy=-17.035806237921264 pbc="F F F"
Np       0.00000000       0.00000000       0.00000000       0.00000000       0.00000000      10.29841423
Np       0.00000000       0.00000000       1.64969697       0.00000000       0.00000000     -10.29841423
2
Properties=species:S:1:pos:R:3:forces:R:3 energy=-16.474219124260443 pbc="F F F"
Np       0.00000000       0.00000000       0.00000000       0.00000000       0.00000000       8.71617031
Np       0.00000000       0.00000000       1.70848485       0.00000000       0.00000000      -8.71617031
2
Properties=species:S:1:pos:R:3:forces:R:3 energy=-16.019745117188354 pbc="F F F"
Np       0.00000000       0.00000000       0.00000000       0.00000000       0.00000000       6.69081116
Np       0.00000000       0.00000000       1.76727273       0.00000000       0.00000000      -6.69081116
2
Properties=species:S:1:pos:R:3:forces:R:3 energy=-15.690890013389092 pbc="F F F"
Np       0.00000000       0.00000000       0.00000000       0.00000000       0.00000000       4.49966908
Np       0.00000000       0.00000000       1.82606061       0.00000000       0.00000000      -4.49966908
2
Properties=species:S:1:pos:R:3:forces:R:3 energy=-15.485912099449973 pbc="F F F"
Np       0.00000000       0.00000000       0.00000000       0.00000000       0.00000000       2.55281115
Np       0.00000000       0.00000000       1.88484848       0.00000000       0.00000000      -2.55281115
2
Properties=species:S:1:pos:R:3:forces:R:3 energy=-15.378357074054698 pbc="F F F"
Np       0.00000000       0.00000000       0.00000000       0.00000000       0.00000000       1.22264326
Np       0.00000000       0.00000000       1.94363636       0.00000000       0.00000000      -1.22264326
2
Properties=species:S:1:pos:R:3:forces:R:3 energy=-15.329874451778968 pbc="F F F"
Np       0.00000000       0.00000000       0.00000000       0.00000000       0.00000000       0.51015753
Np       0.00000000       0.00000000       2.00242424       0.00000000       0.00000000      -0.51015753
2
Properties=species:S:1:pos:R:3:forces:R:3 energy=-15.311389132914691 pbc="F F F"
Np       0.00000000       0.00000000       0.00000000       0.00000000       0.00000000       0.15699472
Np       0.00000000       0.00000000       2.06121212       0.00000000       0.00000000      -0.15699472
2
Properties=species:S:1:pos:R:3:forces:R:3 energy=-15.308676608866278 pbc="F F F"
Np       0.00000000       0.00000000       0.00000000       0.00000000       0.00000000      -0.05254117
Np       0.00000000       0.00000000       2.12000000       0.00000000       0.00000000       0.05254117
2
Properties=species:S:1:pos:R:3:forces:R:3 energy=-15.316918384793127 pbc="F F F"
Np       0.00000000       0.00000000       0.00000000       0.00000000       0.00000000      -0.22686024
Np       0.00000000       0.00000000       2.17878788       0.00000000       0.00000000       0.22686024
2
Properties=species:S:1:pos:R:3:forces:R:3 energy=-15.335509286313224 pbc="F F F"
Np       0.00000000       0.00000000       0.00000000       0.00000000       0.00000000      -0.40831709
Np       0.00000000       0.00000000       2.23757576       0.00000000       0.00000000       0.40831709
2
Properties=species:S:1:pos:R:3:forces:R:3 energy=-15.365276443826204 pbc="F F F"
Np       0.00000000       0.00000000       0.00000000       0.00000000       0.00000000      -0.60711777
Np       0.00000000       0.00000000       2.29636364       0.00000000       0.00000000       0.60711777
2
Properties=species:S:1:pos:R:3:forces:R:3 energy=-15.407108951219689 pbc="F F F"
Np       0.00000000       0.00000000       0.00000000       0.00000000       0.00000000      -0.81667167
Np       0.00000000       0.00000000       2.35515152       0.00000000       0.00000000       0.81667167
2
Properties=species:S:1:pos:R:3:forces:R:3 energy=-15.461192968382381 pbc="F F F"
Np       0.00000000       0.00000000       0.00000000       0.00000000       0.00000000      -1.02081537
Np       0.00000000       0.00000000       2.41393939       0.00000000       0.00000000       1.02081537
2
Properties=species:S:1:pos:R:3:forces:R:3 energy=-15.526644581934818 pbc="F F F"
Np       0.00000000       0.00000000       0.00000000       0.00000000       0.00000000      -1.20025408
Np       0.00000000       0.00000000       2.47272727       0.00000000       0.00000000       1.20025408
2
Properties=species:S:1:pos:R:3:forces:R:3 energy=-15.60151637957928 pbc="F F F"
Np       0.00000000       0.00000000       0.00000000       0.00000000       0.00000000      -1.33928454
Np       0.00000000       0.00000000       2.53151515       0.00000000       0.00000000       1.33928454
2
Properties=species:S:1:pos:R:3:forces:R:3 energy=-15.683170501484259 pbc="F F F"
Np       0.00000000       0.00000000       0.00000000       0.00000000       0.00000000      -1.43058038
Np       0.00000000       0.00000000       2.59030303       0.00000000       0.00000000       1.43058038
2
Properties=species:S:1:pos:R:3:forces:R:3 energy=-15.768812533174897 pbc="F F F"
Np       0.00000000       0.00000000       0.00000000       0.00000000       0.00000000      -1.47580254
Np       0.00000000       0.00000000       2.64909091       0.00000000       0.00000000       1.47580254
2
Properties=species:S:1:pos:R:3:forces:R:3 energy=-15.855918865668322 pbc="F F F"
Np       0.00000000       0.00000000       0.00000000       0.00000000       0.00000000      -1.48167396
Np       0.00000000       0.00000000       2.70787879       0.00000000       0.00000000       1.48167396
2
Properties=species:S:1:pos:R:3:forces:R:3 energy=-15.942362517126986 pbc="F F F"
Np       0.00000000       0.00000000       0.00000000       0.00000000       0.00000000      -1.45369780
Np       0.00000000       0.00000000       2.76666667       0.00000000       0.00000000       1.45369780
2
Properties=species:S:1:pos:R:3:forces:R:3 energy=-16.026165991826527 pbc="F F F"
Np       0.00000000       0.00000000       0.00000000       0.00000000       0.00000000      -1.39117384
Np       0.00000000       0.00000000       2.82545455       0.00000000       0.00000000       1.39117384
2
Properties=species:S:1:pos:R:3:forces:R:3 energy=-16.105103011758892 pbc="F F F"
Np       0.00000000       0.00000000       0.00000000       0.00000000       0.00000000      -1.28626561
Np       0.00000000       0.00000000       2.88424242       0.00000000       0.00000000       1.28626561
2
Properties=species:S:1:pos:R:3:forces:R:3 energy=-16.176348150690842 pbc="F F F"
Np       0.00000000       0.00000000       0.00000000       0.00000000       0.00000000      -1.12779319
Np       0.00000000       0.00000000       2.94303030       0.00000000       0.00000000       1.12779319
2
Properties=species:S:1:pos:R:3:forces:R:3 energy=-16.2364979290405 pbc="F F F"
Np       0.00000000       0.00000000       0.00000000       0.00000000       0.00000000      -0.90817326
Np       0.00000000       0.00000000       3.00181818       0.00000000       0.00000000       0.90817326
2
Properties=species:S:1:pos:R:3:forces:R:3 energy=-16.281976214160867 pbc="F F F"
Np       0.00000000       0.00000000       0.00000000       0.00000000       0.00000000      -0.63027090
Np       0.00000000       0.00000000       3.06060606       0.00000000       0.00000000       0.63027090
2
Properties=species:S:1:pos:R:3:forces:R:3 energy=-16.309773153208265 pbc="F F F"
Np       0.00000000       0.00000000       0.00000000       0.00000000       0.00000000      -0.31046173
Np       0.00000000       0.00000000       3.11939394       0.00000000       0.00000000       0.31046173
2
Properties=species:S:1:pos:R:3:forces:R:3 energy=-16.31818924184976 pbc="F F F"
Np       0.00000000       0.00000000       0.00000000       0.00000000       0.00000000       0.02402193
Np       0.00000000       0.00000000       3.17818182       0.00000000       0.00000000      -0.02402193
2
Properties=species:S:1:pos:R:3:forces:R:3 energy=-16.30727753770633 pbc="F F F"
Np       0.00000000       0.00000000       0.00000000       0.00000000       0.00000000       0.34185633
Np       0.00000000       0.00000000       3.23696970       0.00000000       0.00000000      -0.34185633
2
Properties=species:S:1:pos:R:3:forces:R:3 energy=-16.27887640206185 pbc="F F F"
Np       0.00000000       0.00000000       0.00000000       0.00000000       0.00000000       0.61495650
Np       0.00000000       0.00000000       3.29575758       0.00000000       0.00000000      -0.61495650
2
Properties=species:S:1:pos:R:3:forces:R:3 energy=-16.236246888210943 pbc="F F F"
Np       0.00000000       0.00000000       0.00000000       0.00000000       0.00000000       0.82339734
Np       0.00000000       0.00000000       3.35454545       0.00000000       0.00000000      -0.82339734
2
Properties=species:S:1:pos:R:3:forces:R:3 energy=-16.183531067118544 pbc="F F F"
Np       0.00000000       0.00000000       0.00000000       0.00000000       0.00000000       0.95736653
Np       0.00000000       0.00000000       3.41333333       0.00000000       0.00000000      -0.95736653
2
Properties=species:S:1:pos:R:3:forces:R:3 energy=-16.125145629938856 pbc="F F F"
Np       0.00000000       0.00000000       0.00000000       0.00000000       0.00000000       1.01703405
Np       0.00000000       0.00000000       3.47212121       0.00000000       0.00000000      -1.01703405
2
Properties=species:S:1:pos:R:3:forces:R:3 energy=-16.0652401123046 pbc="F F F"
Np       0.00000000       0.00000000       0.00000000       0.00000000       0.00000000       1.01121485
Np       0.00000000       0.00000000       3.53090909       0.00000000       0.00000000      -1.01121485
2
Properties=species:S:1:pos:R:3:forces:R:3 energy=-16.007241991678086 pbc="F F F"
Np       0.00000000       0.00000000       0.00000000       0.00000000       0.00000000       0.95501375
Np       0.00000000       0.00000000       3.58969697       0.00000000       0.00000000      -0.95501375
2
Properties=species:S:1:pos:R:3:forces:R:3 energy=-15.953584953527496 pbc="F F F"
Np       0.00000000       0.00000000       0.00000000       0.00000000       0.00000000       0.86659116
Np       0.00000000       0.00000000       3.64848485       0.00000000       0.00000000      -0.86659116
2
Properties=species:S:1:pos:R:3:forces:R:3 energy=-15.905635521760944 pbc="F F F"
Np       0.00000000       0.00000000       0.00000000       0.00000000       0.00000000       0.76355010
Np       0.00000000       0.00000000       3.70727273       0.00000000       0.00000000      -0.76355010
2
Properties=species:S:1:pos:R:3:forces:R:3 energy=-15.863816019356861 pbc="F F F"
Np       0.00000000       0.00000000       0.00000000       0.00000000       0.00000000       0.65999269
Np       0.00000000       0.00000000       3.76606061       0.00000000       0.00000000      -0.65999269
2
Properties=species:S:1:pos:R:3:forces:R:3 energy=-15.827862085772002 pbc="F F F"
Np       0.00000000       0.00000000       0.00000000       0.00000000       0.00000000       0.56513834
Np       0.00000000       0.00000000       3.82484848       0.00000000       0.00000000      -0.56513834
2
Properties=species:S:1:pos:R:3:forces:R:3 energy=-15.7971069099016 pbc="F F F"
Np       0.00000000       0.00000000       0.00000000       0.00000000       0.00000000       0.48358163
Np       0.00000000       0.00000000       3.88363636       0.00000000       0.00000000      -0.48358163
2
Properties=species:S:1:pos:R:3:forces:R:3 energy=-15.770717766652407 pbc="F F F"
Np       0.00000000       0.00000000       0.00000000       0.00000000       0.00000000       0.41664600
Np       0.00000000       0.00000000       3.94242424       0.00000000       0.00000000      -0.41664600
2
Properties=species:S:1:pos:R:3:forces:R:3 energy=-15.747841929113108 pbc="F F F"
Np       0.00000000       0.00000000       0.00000000       0.00000000       0.00000000       0.36387485
Np       0.00000000       0.00000000       4.00121212       0.00000000       0.00000000      -0.36387485
2
Properties=species:S:1:pos:R:3:forces:R:3 energy=-15.727679249172676 pbc="F F F"
Np       0.00000000       0.00000000       0.00000000       0.00000000       0.00000000       0.32410824
Np       0.00000000       0.00000000       4.06000000       0.00000000       0.00000000      -0.32410824
2
Properties=species:S:1:pos:R:3:forces:R:3 energy=-15.709506927710024 pbc="F F F"
Np       0.00000000       0.00000000       0.00000000       0.00000000       0.00000000       0.29596031
Np       0.00000000       0.00000000       4.11878788       0.00000000       0.00000000      -0.29596031
2
Properties=species:S:1:pos:R:3:forces:R:3 energy=-15.692684333650737 pbc="F F F"
Np       0.00000000       0.00000000       0.00000000       0.00000000       0.00000000       0.27789083
Np       0.00000000       0.00000000       4.17757576       0.00000000       0.00000000      -0.27789083
2
Properties=species:S:1:pos:R:3:forces:R:3 energy=-15.676669343143342 pbc="F F F"
Np       0.00000000       0.00000000       0.00000000       0.00000000       0.00000000       0.26818004
Np       0.00000000       0.00000000       4.23636364       0.00000000       0.00000000      -0.26818004
2
Properties=species:S:1:pos:R:3:forces:R:3 energy=-15.661024939251782 pbc="F F F"
Np       0.00000000       0.00000000       0.00000000       0.00000000       0.00000000       0.26496205
Np       0.00000000       0.00000000       4.29515152       0.00000000       0.00000000      -0.26496205
2
Properties=species:S:1:pos:R:3:forces:R:3 energy=-15.645426077744972 pbc="F F F"
Np       0.00000000       0.00000000       0.00000000       0.00000000       0.00000000       0.26636663
Np       0.00000000       0.00000000       4.35393939       0.00000000       0.00000000      -0.26636663
2
Properties=species:S:1:pos:R:3:forces:R:3 energy=-15.629650036312029 pbc="F F F"
Np       0.00000000       0.00000000       0.00000000       0.00000000       0.00000000       0.27068031
Np       0.00000000       0.00000000       4.41272727       0.00000000       0.00000000      -0.27068031
2
Properties=species:S:1:pos:R:3:forces:R:3 energy=-15.613571899616463 pbc="F F F"
Np       0.00000000       0.00000000       0.00000000       0.00000000       0.00000000       0.27644238
Np       0.00000000       0.00000000       4.47151515       0.00000000       0.00000000      -0.27644238
2
Properties=species:S:1:pos:R:3:forces:R:3 energy=-15.597142485402731 pbc="F F F"
Np       0.00000000       0.00000000       0.00000000       0.00000000       0.00000000       0.28243831
Np       0.00000000       0.00000000       4.53030303       0.00000000       0.00000000      -0.28243831
2
Properties=species:S:1:pos:R:3:forces:R:3 energy=-15.580380854485869 pbc="F F F"
Np       0.00000000       0.00000000       0.00000000       0.00000000       0.00000000       0.28761190
Np       0.00000000       0.00000000       4.58909091       0.00000000       0.00000000      -0.28761190
2
Properties=species:S:1:pos:R:3:forces:R:3 energy=-15.563362008020055 pbc="F F F"
Np       0.00000000       0.00000000       0.00000000       0.00000000       0.00000000       0.29099870
Np       0.00000000       0.00000000       4.64787879       0.00000000       0.00000000      -0.29099870
2
Properties=species:S:1:pos:R:3:forces:R:3 energy=-15.546218687141282 pbc="F F F"
Np       0.00000000       0.00000000       0.00000000       0.00000000       0.00000000       0.29169798
Np       0.00000000       0.00000000       4.70666667       0.00000000       0.00000000      -0.29169798
2
Properties=species:S:1:pos:R:3:forces:R:3 energy=-15.529132000950947 pbc="F F F"
Np       0.00000000       0.00000000       0.00000000       0.00000000       0.00000000       0.28899732
Np       0.00000000       0.00000000       4.76545455       0.00000000       0.00000000      -0.28899732
2
Properties=species:S:1:pos:R:3:forces:R:3 energy=-15.51231228967308 pbc="F F F"
Np       0.00000000       0.00000000       0.00000000       0.00000000       0.00000000       0.28255790
Np       0.00000000       0.00000000       4.82424242       0.00000000       0.00000000      -0.28255790
2
Properties=species:S:1:pos:R:3:forces:R:3 energy=-15.49598017154526 pbc="F F F"
Np       0.00000000       0.00000000       0.00000000       0.00000000       0.00000000       0.27260783
Np       0.00000000       0.00000000       4.88303030       0.00000000       0.00000000      -0.27260783
2
Properties=species:S:1:pos:R:3:forces:R:3 energy=-15.48031391966881 pbc="F F F"
Np       0.00000000       0.00000000       0.00000000       0.00000000       0.00000000       0.26000574
Np       0.00000000       0.00000000       4.94181818       0.00000000       0.00000000      -0.26000574
2
Properties=species:S:1:pos:R:3:forces:R:3 energy=-15.465434304590051 pbc="F F F"
Np       0.00000000       0.00000000       0.00000000       0.00000000       0.00000000       0.24611416
Np       0.00000000       0.00000000       5.00060606       0.00000000       0.00000000      -0.24611416
2
Properties=species:S:1:pos:R:3:forces:R:3 energy=-15.45137120936358 pbc="F F F"
Np       0.00000000       0.00000000       0.00000000       0.00000000       0.00000000       0.23243845
Np       0.00000000       0.00000000       5.05939394       0.00000000       0.00000000      -0.23243845
2
Properties=species:S:1:pos:R:3:forces:R:3 energy=-15.438076841608524 pbc="F F F"
Np       0.00000000       0.00000000       0.00000000       0.00000000       0.00000000       0.22021341
Np       0.00000000       0.00000000       5.11818182       0.00000000       0.00000000      -0.22021341
2
Properties=species:S:1:pos:R:3:forces:R:3 energy=-15.425440025952 pbc="F F F"
Np       0.00000000       0.00000000       0.00000000       0.00000000       0.00000000       0.21002437
Np       0.00000000       0.00000000       5.17696970       0.00000000       0.00000000      -0.21002437
2
Properties=species:S:1:pos:R:3:forces:R:3 energy=-15.413346317189266 pbc="F F F"
Np       0.00000000       0.00000000       0.00000000       0.00000000       0.00000000       0.20167372
Np       0.00000000       0.00000000       5.23575758       0.00000000       0.00000000      -0.20167372
2
Properties=species:S:1:pos:R:3:forces:R:3 energy=-15.401709167425244 pbc="F F F"
Np       0.00000000       0.00000000       0.00000000       0.00000000       0.00000000       0.19427273
Np       0.00000000       0.00000000       5.29454545       0.00000000       0.00000000      -0.19427273
2
Properties=species:S:1:pos:R:3:forces:R:3 energy=-15.390510119779972 pbc="F F F"
Np       0.00000000       0.00000000       0.00000000       0.00000000       0.00000000       0.18656230
Np       0.00000000       0.00000000       5.35333333       0.00000000       0.00000000      -0.18656230
2
Properties=species:S:1:pos:R:3:forces:R:3 energy=-15.37980627939204 pbc="F F F"
Np       0.00000000       0.00000000       0.00000000       0.00000000       0.00000000       0.17728183
Np       0.00000000       0.00000000       5.41212121       0.00000000       0.00000000      -0.17728183
2
Properties=species:S:1:pos:R:3:forces:R:3 energy=-15.36971483288197 pbc="F F F"
Np       0.00000000       0.00000000       0.00000000       0.00000000       0.00000000       0.16553426
Np       0.00000000       0.00000000       5.47090909       0.00000000       0.00000000      -0.16553426
2
Properties=species:S:1:pos:R:3:forces:R:3 energy=-15.36039689924528 pbc="F F F"
Np       0.00000000       0.00000000       0.00000000       0.00000000       0.00000000       0.15098889
Np       0.00000000       0.00000000       5.52969697       0.00000000       0.00000000      -0.15098889
2
Properties=species:S:1:pos:R:3:forces:R:3 energy=-15.352011607765482 pbc="F F F"
Np       0.00000000       0.00000000       0.00000000       0.00000000       0.00000000       0.13393958
Np       0.00000000       0.00000000       5.58848485       0.00000000       0.00000000      -0.13393958
2
Properties=species:S:1:pos:R:3:forces:R:3 energy=-15.344684493713107 pbc="F F F"
Np       0.00000000       0.00000000       0.00000000       0.00000000       0.00000000       0.11524620
Np       0.00000000       0.00000000       5.64727273       0.00000000       0.00000000      -0.11524620
2
Properties=species:S:1:pos:R:3:forces:R:3 energy=-15.338472149039552 pbc="F F F"
Np       0.00000000       0.00000000       0.00000000       0.00000000       0.00000000       0.09611791
Np       0.00000000       0.00000000       5.70606061       0.00000000       0.00000000      -0.09611791
2
Properties=species:S:1:pos:R:3:forces:R:3 energy=-15.333358363330314 pbc="F F F"
Np       0.00000000       0.00000000       0.00000000       0.00000000       0.00000000       0.07793076
Np       0.00000000       0.00000000       5.76484848       0.00000000       0.00000000      -0.07793076
2
Properties=species:S:1:pos:R:3:forces:R:3 energy=-15.329260729833107 pbc="F F F"
Np       0.00000000       0.00000000       0.00000000       0.00000000       0.00000000       0.06200626
Np       0.00000000       0.00000000       5.82363636       0.00000000       0.00000000      -0.06200626
2
Properties=species:S:1:pos:R:3:forces:R:3 energy=-15.326006657880141 pbc="F F F"
Np       0.00000000       0.00000000       0.00000000       0.00000000       0.00000000       0.04946286
Np       0.00000000       0.00000000       5.88242424       0.00000000       0.00000000      -0.04946286
2
Properties=species:S:1:pos:R:3:forces:R:3 energy=-15.323363050833523 pbc="F F F"
Np       0.00000000       0.00000000       0.00000000       0.00000000       0.00000000       0.04116196
Np       0.00000000       0.00000000       5.94121212       0.00000000       0.00000000      -0.04116196
2
Properties=species:S:1:pos:R:3:forces:R:3 energy=-15.321070460962607 pbc="F F F"
Np       0.00000000       0.00000000       0.00000000       0.00000000       0.00000000       0.03771560
Np       0.00000000       0.00000000       6.00000000       0.00000000       0.00000000      -0.03771560
