2
Properties=species:S:1:pos:R:3:forces:R:3 energy=802.8951857405283 pbc="F F F"
O        0.00000000       0.00000000       0.00000000       0.00000000       0.00000000   -8261.88964844
O        0.00000000       0.00000000       0.18000000       0.00000000       0.00000000    8261.88964844
2
Properties=species:S:1:pos:R:3:forces:R:3 energy=478.4895155760966 pbc="F F F"
O        0.00000000       0.00000000       0.00000000       0.00000000       0.00000000   -3709.57226562
O        0.00000000       0.00000000       0.23878788       0.00000000       0.00000000    3709.57226562
2
Properties=species:S:1:pos:R:3:forces:R:3 energy=299.2941115249462 pbc="F F F"
O        0.00000000       0.00000000       0.00000000       0.00000000       0.00000000   -2753.15234375
O        0.00000000       0.00000000       0.29757576       0.00000000       0.00000000    2753.15234375
2
Properties=species:S:1:pos:R:3:forces:R:3 energy=144.60525349747132 pbc="F F F"
O        0.00000000       0.00000000       0.00000000       0.00000000       0.00000000   -1316.45568848
O        0.00000000       0.00000000       0.35636364       0.00000000       0.00000000    1316.45568848
2
Properties=species:S:1:pos:R:3:forces:R:3 energy=95.8280318288712 pbc="F F F"
O        0.00000000       0.00000000       0.00000000       0.00000000       0.00000000    -234.98083496
O        0.00000000       0.00000000       0.41515152       0.00000000       0.00000000     234.98083496
2
Properties=species:S:1:pos:R:3:forces:R:3 energy=82.97270043014753 pbc="F F F"
O        0.00000000       0.00000000       0.00000000       0.00000000       0.00000000    -201.69358826
O        0.00000000       0.00000000       0.47393939       0.00000000       0.00000000     201.69358826
2
Properties=species:S:1:pos:R:3:forces:R:3 energy=70.039907807755 pbc="F F F"
O        0.00000000       0.00000000       0.00000000       0.00000000       0.00000000    -188.81813049
O        0.00000000       0.00000000       0.53272727       0.00000000       0.00000000     188.81813049
2
Properties=species:S:1:pos:R:3:forces:R:3 energy=59.49350208917053 pbc="F F F"
O        0.00000000       0.00000000       0.00000000       0.00000000       0.00000000    -202.03768921
O        0.00000000       0.00000000       0.59151515       0.00000000       0.00000000     202.03768921
2
Properties=species:S:1:pos:R:3:forces:R:3 energy=45.721598216264645 pbc="F F F"
O        0.00000000       0.00000000       0.00000000       0.00000000       0.00000000    -284.73315430
O        0.00000000       0.00000000       0.65030303       0.00000000       0.00000000     284.73315430
2
Properties=species:S:1:pos:R:3:forces:R:3 energy=28.067524688748144 pbc="F F F"
O        0.00000000       0.00000000       0.00000000       0.00000000       0.00000000    -286.43566895
O        0.00000000       0.00000000       0.70909091       0.00000000       0.00000000     286.43566895
2
Properties=species:S:1:pos:R:3:forces:R:3 energy=13.43562704752157 pbc="F F F"
O        0.00000000       0.00000000       0.00000000       0.00000000       0.00000000    -196.46551514
O        0.00000000       0.00000000       0.76787879       0.00000000       0.00000000     196.46551514
2
Properties=species:S:1:pos:R:3:forces:R:3 energy=5.149262911899119 pbc="F F F"
O        0.00000000       0.00000000       0.00000000       0.00000000       0.00000000     -98.57064819
O        0.00000000       0.00000000       0.82666667       0.00000000       0.00000000      98.57064819
2
Properties=species:S:1:pos:R:3:forces:R:3 energy=0.5479925997075688 pbc="F F F"
O        0.00000000       0.00000000       0.00000000       0.00000000       0.00000000     -65.48741150
O        0.00000000       0.00000000       0.88545455       0.00000000       0.00000000      65.48741150
2
Properties=species:S:1:pos:R:3:forces:R:3 energy=-2.971592647884711 pbc="F F F"
O        0.00000000       0.00000000       0.00000000       0.00000000       0.00000000     -54.29645538
O        0.00000000       0.00000000       0.94424242       0.00000000       0.00000000      54.29645538
2
Properties=species:S:1:pos:R:3:forces:R:3 energy=-5.744773655626831 pbc="F F F"
O        0.00000000       0.00000000       0.00000000       0.00000000       0.00000000     -39.65591812
O        0.00000000       0.00000000       1.00303030       0.00000000       0.00000000      39.65591812
2
Properties=species:S:1:pos:R:3:forces:R:3 energy=-7.646658119024458 pbc="F F F"
O        0.00000000       0.00000000       0.00000000       0.00000000       0.00000000     -25.38022804
O        0.00000000       0.00000000       1.06181818       0.00000000       0.00000000      25.38022804
2
Properties=species:S:1:pos:R:3:forces:R:3 energy=-8.77766526951369 pbc="F F F"
O        0.00000000       0.00000000       0.00000000       0.00000000       0.00000000     -13.61657143
O        0.00000000       0.00000000       1.12060606       0.00000000       0.00000000      13.61657143
2
Properties=species:S:1:pos:R:3:forces:R:3 energy=-9.317361518174788 pbc="F F F"
O        0.00000000       0.00000000       0.00000000       0.00000000       0.00000000      -5.33945847
O        0.00000000       0.00000000       1.17939394       0.00000000       0.00000000       5.33945847
2
Properties=species:S:1:pos:R:3:forces:R:3 energy=-9.466435450460796 pbc="F F F"
O        0.00000000       0.00000000       0.00000000       0.00000000       0.00000000      -0.16438979
O        0.00000000       0.00000000       1.23818182       0.00000000       0.00000000       0.16438979
2
Properties=species:S:1:pos:R:3:forces:R:3 energy=-9.378979545253536 pbc="F F F"
O        0.00000000       0.00000000       0.00000000       0.00000000       0.00000000       2.84685040
O        0.00000000       0.00000000       1.29696970       0.00000000       0.00000000      -2.84685040
2
Properties=species:S:1:pos:R:3:forces:R:3 energy=-9.157491353053983 pbc="F F F"
O        0.00000000       0.00000000       0.00000000       0.00000000       0.00000000       4.55039310
O        0.00000000       0.00000000       1.35575758       0.00000000       0.00000000      -4.55039310
2
Properties=species:S:1:pos:R:3:forces:R:3 energy=-8.85257555187401 pbc="F F F"
O        0.00000000       0.00000000       0.00000000       0.00000000       0.00000000       5.79903555
O        0.00000000       0.00000000       1.41454545       0.00000000       0.00000000      -5.79903555
2
Properties=species:S:1:pos:R:3:forces:R:3 energy=-8.474381050962872 pbc="F F F"
O        0.00000000       0.00000000       0.00000000       0.00000000       0.00000000       7.10342169
O        0.00000000       0.00000000       1.47333333       0.00000000       0.00000000      -7.10342169
2
Properties=species:S:1:pos:R:3:forces:R:3 energy=-8.012962487544579 pbc="F F F"
O        0.00000000       0.00000000       0.00000000       0.00000000       0.00000000       8.61252022
O        0.00000000       0.00000000       1.53212121       0.00000000       0.00000000      -8.61252022
2
Properties=species:S:1:pos:R:3:forces:R:3 energy=-7.465060018047227 pbc="F F F"
O        0.00000000       0.00000000       0.00000000       0.00000000       0.00000000       9.94740105
O        0.00000000       0.00000000       1.59090909       0.00000000       0.00000000      -9.94740105
2
Properties=species:S:1:pos:R:3:forces:R:3 energy=-6.857050699995973 pbc="F F F"
O        0.00000000       0.00000000       0.00000000       0.00000000       0.00000000      10.60664082
O        0.00000000       0.00000000       1.64969697       0.00000000       0.00000000     -10.60664082
2
Properties=species:S:1:pos:R:3:forces:R:3 energy=-6.23126706976477 pbc="F F F"
O        0.00000000       0.00000000       0.00000000       0.00000000       0.00000000      10.59820271
O        0.00000000       0.00000000       1.70848485       0.00000000       0.00000000     -10.59820271
2
Properties=species:S:1:pos:R:3:forces:R:3 energy=-5.618824705478603 pbc="F F F"
O        0.00000000       0.00000000       0.00000000       0.00000000       0.00000000      10.16775227
O        0.00000000       0.00000000       1.76727273       0.00000000       0.00000000     -10.16775227
2
Properties=species:S:1:pos:R:3:forces:R:3 energy=-5.0478366751533565 pbc="F F F"
O        0.00000000       0.00000000       0.00000000       0.00000000       0.00000000       9.11753082
O        0.00000000       0.00000000       1.82606061       0.00000000       0.00000000      -9.11753082
2
Properties=species:S:1:pos:R:3:forces:R:3 energy=-4.564160441046525 pbc="F F F"
O        0.00000000       0.00000000       0.00000000       0.00000000       0.00000000       7.21844196
O        0.00000000       0.00000000       1.88484848       0.00000000       0.00000000      -7.21844196
2
Properties=species:S:1:pos:R:3:forces:R:3 energy=-4.204597635416175 pbc="F F F"
O        0.00000000       0.00000000       0.00000000       0.00000000       0.00000000       5.04918909
O        0.00000000       0.00000000       1.94363636       0.00000000       0.00000000      -5.04918909
2
Properties=species:S:1:pos:R:3:forces:R:3 energy=-3.959058604289044 pbc="F F F"
O        0.00000000       0.00000000       0.00000000       0.00000000       0.00000000       3.43747044
O        0.00000000       0.00000000       2.00242424       0.00000000       0.00000000      -3.43747044
2
Properties=species:S:1:pos:R:3:forces:R:3 energy=-3.785047009873422 pbc="F F F"
O        0.00000000       0.00000000       0.00000000       0.00000000       0.00000000       2.59343076
O        0.00000000       0.00000000       2.06121212       0.00000000       0.00000000      -2.59343076
2
Properties=species:S:1:pos:R:3:forces:R:3 energy=-3.644781165678975 pbc="F F F"
O        0.00000000       0.00000000       0.00000000       0.00000000       0.00000000       2.22698951
O        0.00000000       0.00000000       2.12000000       0.00000000       0.00000000      -2.22698951
2
Properties=species:S:1:pos:R:3:forces:R:3 energy=-3.5203879990448 pbc="F F F"
O        0.00000000       0.00000000       0.00000000       0.00000000       0.00000000       2.01080918
O        0.00000000       0.00000000       2.17878788       0.00000000       0.00000000      -2.01080918
2
Properties=species:S:1:pos:R:3:forces:R:3 energy=-3.4087542053189455 pbc="F F F"
O        0.00000000       0.00000000       0.00000000       0.00000000       0.00000000       1.77898252
O        0.00000000       0.00000000       2.23757576       0.00000000       0.00000000      -1.77898252
2
Properties=species:S:1:pos:R:3:forces:R:3 energy=-3.3121568039729086 pbc="F F F"
O        0.00000000       0.00000000       0.00000000       0.00000000       0.00000000       1.50125468
O        0.00000000       0.00000000       2.29636364       0.00000000       0.00000000      -1.50125468
2
Properties=species:S:1:pos:R:3:forces:R:3 energy=-3.2326049484527033 pbc="F F F"
O        0.00000000       0.00000000       0.00000000       0.00000000       0.00000000       1.20518291
O        0.00000000       0.00000000       2.35515152       0.00000000       0.00000000      -1.20518291
2
Properties=species:S:1:pos:R:3:forces:R:3 energy=-3.170153452936693 pbc="F F F"
O        0.00000000       0.00000000       0.00000000       0.00000000       0.00000000       0.92409486
O        0.00000000       0.00000000       2.41393939       0.00000000       0.00000000      -0.92409486
2
Properties=species:S:1:pos:R:3:forces:R:3 energy=-3.1232566862864415 pbc="F F F"
O        0.00000000       0.00000000       0.00000000       0.00000000       0.00000000       0.67807555
O        0.00000000       0.00000000       2.47272727       0.00000000       0.00000000      -0.67807555
2
Properties=species:S:1:pos:R:3:forces:R:3 energy=-3.08961094052468 pbc="F F F"
O        0.00000000       0.00000000       0.00000000       0.00000000       0.00000000       0.47345707
O        0.00000000       0.00000000       2.53151515       0.00000000       0.00000000      -0.47345707
2
Properties=species:S:1:pos:R:3:forces:R:3 energy=-3.0668156186161726 pbc="F F F"
O        0.00000000       0.00000000       0.00000000       0.00000000       0.00000000       0.30821788
O        0.00000000       0.00000000       2.59030303       0.00000000       0.00000000      -0.30821788
2
Properties=species:S:1:pos:R:3:forces:R:3 energy=-3.0527058521442347 pbc="F F F"
O        0.00000000       0.00000000       0.00000000       0.00000000       0.00000000       0.17699556
O        0.00000000       0.00000000       2.64909091       0.00000000       0.00000000      -0.17699556
2
Properties=species:S:1:pos:R:3:forces:R:3 energy=-3.045451491746432 pbc="F F F"
O        0.00000000       0.00000000       0.00000000       0.00000000       0.00000000       0.07408510
O        0.00000000       0.00000000       2.70787879       0.00000000       0.00000000      -0.07408510
2
Properties=species:S:1:pos:R:3:forces:R:3 energy=-3.0435354260710397 pbc="F F F"
O        0.00000000       0.00000000       0.00000000       0.00000000       0.00000000      -0.00534575
O        0.00000000       0.00000000       2.76666667       0.00000000       0.00000000       0.00534575
2
Properties=species:S:1:pos:R:3:forces:R:3 energy=-3.0456947003075596 pbc="F F F"
O        0.00000000       0.00000000       0.00000000       0.00000000       0.00000000      -0.06508823
O        0.00000000       0.00000000       2.82545455       0.00000000       0.00000000       0.06508823
2
Properties=species:S:1:pos:R:3:forces:R:3 energy=-3.05086188659906 pbc="F F F"
O        0.00000000       0.00000000       0.00000000       0.00000000       0.00000000      -0.10813726
O        0.00000000       0.00000000       2.88424242       0.00000000       0.00000000       0.10813726
2
Properties=species:S:1:pos:R:3:forces:R:3 energy=-3.0581307327598535 pbc="F F F"
O        0.00000000       0.00000000       0.00000000       0.00000000       0.00000000      -0.13698550
O        0.00000000       0.00000000       2.94303030       0.00000000       0.00000000       0.13698550
2
Properties=species:S:1:pos:R:3:forces:R:3 energy=-3.066733029337678 pbc="F F F"
O        0.00000000       0.00000000       0.00000000       0.00000000       0.00000000      -0.15384585
O        0.00000000       0.00000000       3.00181818       0.00000000       0.00000000       0.15384585
2
Properties=species:S:1:pos:R:3:forces:R:3 energy=-3.0760244969841106 pbc="F F F"
O        0.00000000       0.00000000       0.00000000       0.00000000       0.00000000      -0.16076124
O        0.00000000       0.00000000       3.06060606       0.00000000       0.00000000       0.16076124
2
Properties=species:S:1:pos:R:3:forces:R:3 energy=-3.0854773701360356 pbc="F F F"
O        0.00000000       0.00000000       0.00000000       0.00000000       0.00000000      -0.15963629
O        0.00000000       0.00000000       3.11939394       0.00000000       0.00000000       0.15963629
2
Properties=species:S:1:pos:R:3:forces:R:3 energy=-3.094671029790931 pbc="F F F"
O        0.00000000       0.00000000       0.00000000       0.00000000       0.00000000      -0.15223756
O        0.00000000       0.00000000       3.17818182       0.00000000       0.00000000       0.15223756
2
Properties=species:S:1:pos:R:3:forces:R:3 energy=-3.103285286604963 pbc="F F F"
O        0.00000000       0.00000000       0.00000000       0.00000000       0.00000000      -0.14016941
O        0.00000000       0.00000000       3.23696970       0.00000000       0.00000000       0.14016941
2
Properties=species:S:1:pos:R:3:forces:R:3 energy=-3.111088151457389 pbc="F F F"
O        0.00000000       0.00000000       0.00000000       0.00000000       0.00000000      -0.12486094
O        0.00000000       0.00000000       3.29575758       0.00000000       0.00000000       0.12486094
2
Properties=species:S:1:pos:R:3:forces:R:3 energy=-3.1179264805011493 pbc="F F F"
O        0.00000000       0.00000000       0.00000000       0.00000000       0.00000000      -0.10754208
O        0.00000000       0.00000000       3.35454545       0.00000000       0.00000000       0.10754208
2
Properties=species:S:1:pos:R:3:forces:R:3 energy=-3.1237135259196473 pbc="F F F"
O        0.00000000       0.00000000       0.00000000       0.00000000       0.00000000      -0.08924519
O        0.00000000       0.00000000       3.41333333       0.00000000       0.00000000       0.08924519
2
Properties=species:S:1:pos:R:3:forces:R:3 energy=-3.128416982131635 pbc="F F F"
O        0.00000000       0.00000000       0.00000000       0.00000000       0.00000000      -0.07081235
O        0.00000000       0.00000000       3.47212121       0.00000000       0.00000000       0.07081235
2
Properties=species:S:1:pos:R:3:forces:R:3 energy=-3.1320498791598363 pbc="F F F"
O        0.00000000       0.00000000       0.00000000       0.00000000       0.00000000      -0.05291447
O        0.00000000       0.00000000       3.53090909       0.00000000       0.00000000       0.05291447
2
Properties=species:S:1:pos:R:3:forces:R:3 energy=-3.1346593638904565 pbc="F F F"
O        0.00000000       0.00000000       0.00000000       0.00000000       0.00000000      -0.03607756
O        0.00000000       0.00000000       3.58969697       0.00000000       0.00000000       0.03607756
2
Properties=species:S:1:pos:R:3:forces:R:3 energy=-3.136320499210242 pbc="F F F"
O        0.00000000       0.00000000       0.00000000       0.00000000       0.00000000      -0.02071050
O        0.00000000       0.00000000       3.64848485       0.00000000       0.00000000       0.02071050
2
Properties=species:S:1:pos:R:3:forces:R:3 energy=-3.1371293431360616 pbc="F F F"
O        0.00000000       0.00000000       0.00000000       0.00000000       0.00000000      -0.00712288
O        0.00000000       0.00000000       3.70727273       0.00000000       0.00000000       0.00712288
2
Properties=species:S:1:pos:R:3:forces:R:3 energy=-3.1371974810266985 pbc="F F F"
O        0.00000000       0.00000000       0.00000000       0.00000000       0.00000000       0.00445824
O        0.00000000       0.00000000       3.76606061       0.00000000       0.00000000      -0.00445824
2
Properties=species:S:1:pos:R:3:forces:R:3 energy=-3.1366477508774824 pbc="F F F"
O        0.00000000       0.00000000       0.00000000       0.00000000       0.00000000       0.01387868
O        0.00000000       0.00000000       3.82484848       0.00000000       0.00000000      -0.01387868
2
Properties=species:S:1:pos:R:3:forces:R:3 energy=-3.1356097305923174 pbc="F F F"
O        0.00000000       0.00000000       0.00000000       0.00000000       0.00000000       0.02105184
O        0.00000000       0.00000000       3.88363636       0.00000000       0.00000000      -0.02105184
2
Properties=species:S:1:pos:R:3:forces:R:3 energy=-3.1342166698244003 pbc="F F F"
O        0.00000000       0.00000000       0.00000000       0.00000000       0.00000000       0.02596404
O        0.00000000       0.00000000       3.94242424       0.00000000       0.00000000      -0.02596404
2
Properties=species:S:1:pos:R:3:forces:R:3 energy=-3.1325997857493193 pbc="F F F"
O        0.00000000       0.00000000       0.00000000       0.00000000       0.00000000       0.02869204
O        0.00000000       0.00000000       4.00121212       0.00000000       0.00000000      -0.02869204
2
Properties=species:S:1:pos:R:3:forces:R:3 energy=-3.1308825647778233 pbc="F F F"
O        0.00000000       0.00000000       0.00000000       0.00000000       0.00000000       0.02942516
O        0.00000000       0.00000000       4.06000000       0.00000000       0.00000000      -0.02942516
2
Properties=species:S:1:pos:R:3:forces:R:3 energy=-3.1291729214712096 pbc="F F F"
O        0.00000000       0.00000000       0.00000000       0.00000000       0.00000000       0.02848456
O        0.00000000       0.00000000       4.11878788       0.00000000       0.00000000      -0.02848456
2
Properties=species:S:1:pos:R:3:forces:R:3 energy=-3.1275572535199805 pbc="F F F"
O        0.00000000       0.00000000       0.00000000       0.00000000       0.00000000       0.02631997
O        0.00000000       0.00000000       4.17757576       0.00000000       0.00000000      -0.02631997
2
Properties=species:S:1:pos:R:3:forces:R:3 energy=-3.1260918755040494 pbc="F F F"
O        0.00000000       0.00000000       0.00000000       0.00000000       0.00000000       0.02347267
O        0.00000000       0.00000000       4.23636364       0.00000000       0.00000000      -0.02347267
2
Properties=species:S:1:pos:R:3:forces:R:3 energy=-3.124799935290325 pbc="F F F"
O        0.00000000       0.00000000       0.00000000       0.00000000       0.00000000       0.02050375
O        0.00000000       0.00000000       4.29515152       0.00000000       0.00000000      -0.02050375
2
Properties=species:S:1:pos:R:3:forces:R:3 energy=-3.1236738167304625 pbc="F F F"
O        0.00000000       0.00000000       0.00000000       0.00000000       0.00000000       0.01790312
O        0.00000000       0.00000000       4.35393939       0.00000000       0.00000000      -0.01790312
2
Properties=species:S:1:pos:R:3:forces:R:3 energy=-3.122681335673079 pbc="F F F"
O        0.00000000       0.00000000       0.00000000       0.00000000       0.00000000       0.01599834
O        0.00000000       0.00000000       4.41272727       0.00000000       0.00000000      -0.01599834
2
Properties=species:S:1:pos:R:3:forces:R:3 energy=-3.121776723651474 pbc="F F F"
O        0.00000000       0.00000000       0.00000000       0.00000000       0.00000000       0.01490556
O        0.00000000       0.00000000       4.47151515       0.00000000       0.00000000      -0.01490556
2
Properties=species:S:1:pos:R:3:forces:R:3 energy=-3.1209147021033696 pbc="F F F"
O        0.00000000       0.00000000       0.00000000       0.00000000       0.00000000       0.01452634
O        0.00000000       0.00000000       4.53030303       0.00000000       0.00000000      -0.01452634
2
Properties=species:S:1:pos:R:3:forces:R:3 energy=-3.1200597791115876 pbc="F F F"
O        0.00000000       0.00000000       0.00000000       0.00000000       0.00000000       0.01461393
O        0.00000000       0.00000000       4.58909091       0.00000000       0.00000000      -0.01461393
2
Properties=species:S:1:pos:R:3:forces:R:3 energy=-3.11919317017547 pbc="F F F"
O        0.00000000       0.00000000       0.00000000       0.00000000       0.00000000       0.01487601
O        0.00000000       0.00000000       4.64787879       0.00000000       0.00000000      -0.01487601
2
Properties=species:S:1:pos:R:3:forces:R:3 energy=-3.118311609978764 pbc="F F F"
O        0.00000000       0.00000000       0.00000000       0.00000000       0.00000000       0.01508418
O        0.00000000       0.00000000       4.70666667       0.00000000       0.00000000      -0.01508418
2
Properties=species:S:1:pos:R:3:forces:R:3 energy=-3.1174223430256123 pbc="F F F"
O        0.00000000       0.00000000       0.00000000       0.00000000       0.00000000       0.01514302
O        0.00000000       0.00000000       4.76545455       0.00000000       0.00000000      -0.01514302
2
Properties=species:S:1:pos:R:3:forces:R:3 energy=-3.1165331138220114 pbc="F F F"
O        0.00000000       0.00000000       0.00000000       0.00000000       0.00000000       0.01510903
O        0.00000000       0.00000000       4.82424242       0.00000000       0.00000000      -0.01510903
2
Properties=species:S:1:pos:R:3:forces:R:3 energy=-3.1156445372337997 pbc="F F F"
O        0.00000000       0.00000000       0.00000000       0.00000000       0.00000000       0.01515143
O        0.00000000       0.00000000       4.88303030       0.00000000       0.00000000      -0.01515143
2
Properties=species:S:1:pos:R:3:forces:R:3 energy=-3.1147458046258625 pbc="F F F"
O        0.00000000       0.00000000       0.00000000       0.00000000       0.00000000       0.01548907
O        0.00000000       0.00000000       4.94181818       0.00000000       0.00000000      -0.01548907
2
Properties=species:S:1:pos:R:3:forces:R:3 energy=-3.1138139697943283 pbc="F F F"
O        0.00000000       0.00000000       0.00000000       0.00000000       0.00000000       0.01630849
O        0.00000000       0.00000000       5.00060606       0.00000000       0.00000000      -0.01630849
2
Properties=species:S:1:pos:R:3:forces:R:3 energy=-3.1128172872226543 pbc="F F F"
O        0.00000000       0.00000000       0.00000000       0.00000000       0.00000000       0.01769734
O        0.00000000       0.00000000       5.05939394       0.00000000       0.00000000      -0.01769734
2
Properties=species:S:1:pos:R:3:forces:R:3 energy=-3.1117228375163783 pbc="F F F"
O        0.00000000       0.00000000       0.00000000       0.00000000       0.00000000       0.01960055
O        0.00000000       0.00000000       5.11818182       0.00000000       0.00000000      -0.01960055
2
Properties=species:S:1:pos:R:3:forces:R:3 energy=-3.1105065423693654 pbc="F F F"
O        0.00000000       0.00000000       0.00000000       0.00000000       0.00000000       0.02181226
O        0.00000000       0.00000000       5.17696970       0.00000000       0.00000000      -0.02181226
2
Properties=species:S:1:pos:R:3:forces:R:3 energy=-3.109158884233839 pbc="F F F"
O        0.00000000       0.00000000       0.00000000       0.00000000       0.00000000       0.02400288
O        0.00000000       0.00000000       5.23575758       0.00000000       0.00000000      -0.02400288
2
Properties=species:S:1:pos:R:3:forces:R:3 energy=-3.1076922972963317 pbc="F F F"
O        0.00000000       0.00000000       0.00000000       0.00000000       0.00000000       0.02578607
O        0.00000000       0.00000000       5.29454545       0.00000000       0.00000000      -0.02578607
2
Properties=species:S:1:pos:R:3:forces:R:3 energy=-3.1061421196175893 pbc="F F F"
O        0.00000000       0.00000000       0.00000000       0.00000000       0.00000000       0.02679923
O        0.00000000       0.00000000       5.35333333       0.00000000       0.00000000      -0.02679923
2
Properties=species:S:1:pos:R:3:forces:R:3 energy=-3.1045615846842534 pbc="F F F"
O        0.00000000       0.00000000       0.00000000       0.00000000       0.00000000       0.02677856
O        0.00000000       0.00000000       5.41212121       0.00000000       0.00000000      -0.02677856
2
Properties=species:S:1:pos:R:3:forces:R:3 energy=-3.103016098917486 pbc="F F F"
O        0.00000000       0.00000000       0.00000000       0.00000000       0.00000000       0.02561320
O        0.00000000       0.00000000       5.47090909       0.00000000       0.00000000      -0.02561320
2
Properties=species:S:1:pos:R:3:forces:R:3 energy=-3.101571558444885 pbc="F F F"
O        0.00000000       0.00000000       0.00000000       0.00000000       0.00000000       0.02335637
O        0.00000000       0.00000000       5.52969697       0.00000000       0.00000000      -0.02335637
2
Properties=species:S:1:pos:R:3:forces:R:3 energy=-3.1002876714251286 pbc="F F F"
O        0.00000000       0.00000000       0.00000000       0.00000000       0.00000000       0.02020336
O        0.00000000       0.00000000       5.58848485       0.00000000       0.00000000      -0.02020336
2
Properties=species:S:1:pos:R:3:forces:R:3 energy=-3.0992079451853636 pbc="F F F"
O        0.00000000       0.00000000       0.00000000       0.00000000       0.00000000       0.01645848
O        0.00000000       0.00000000       5.64727273       0.00000000       0.00000000      -0.01645848
2
Properties=species:S:1:pos:R:3:forces:R:3 energy=-3.0983572993873123 pbc="F F F"
O        0.00000000       0.00000000       0.00000000       0.00000000       0.00000000       0.01247608
O        0.00000000       0.00000000       5.70606061       0.00000000       0.00000000      -0.01247608
2
Properties=species:S:1:pos:R:3:forces:R:3 energy=-3.0977377748145805 pbc="F F F"
O        0.00000000       0.00000000       0.00000000       0.00000000       0.00000000       0.00861747
O        0.00000000       0.00000000       5.76484848       0.00000000       0.00000000      -0.00861747
2
Properties=species:S:1:pos:R:3:forces:R:3 energy=-3.0973347319587314 pbc="F F F"
O        0.00000000       0.00000000       0.00000000       0.00000000       0.00000000       0.00521390
O        0.00000000       0.00000000       5.82363636       0.00000000       0.00000000      -0.00521390
2
Properties=species:S:1:pos:R:3:forces:R:3 energy=-3.0971111266965146 pbc="F F F"
O        0.00000000       0.00000000       0.00000000       0.00000000       0.00000000       0.00254467
O        0.00000000       0.00000000       5.88242424       0.00000000       0.00000000      -0.00254467
2
Properties=species:S:1:pos:R:3:forces:R:3 energy=-3.09701680953015 pbc="F F F"
O        0.00000000       0.00000000       0.00000000       0.00000000       0.00000000       0.00082665
O        0.00000000       0.00000000       5.94121212       0.00000000       0.00000000      -0.00082665
2
Properties=species:S:1:pos:R:3:forces:R:3 energy=-3.096991862185256 pbc="F F F"
O        0.00000000       0.00000000       0.00000000       0.00000000       0.00000000       0.00021801
O        0.00000000       0.00000000       6.00000000       0.00000000       0.00000000      -0.00021801
