2
Properties=species:S:1:pos:R:3:forces:R:3 energy=2383.0051710920907 pbc="F F F"
O        0.00000000       0.00000000       0.00000000       0.00000000       0.00000000  -42701.92578125
O        0.00000000       0.00000000       0.10000000       0.00000000       0.00000000   42701.92578125
2
Properties=species:S:1:pos:R:3:forces:R:3 energy=1004.5768874006845 pbc="F F F"
O        0.00000000       0.00000000       0.00000000       0.00000000       0.00000000  -11773.66113281
O        0.00000000       0.00000000       0.15959596       0.00000000       0.00000000   11773.66113281
2
Properties=species:S:1:pos:R:3:forces:R:3 energy=559.6698439452373 pbc="F F F"
O        0.00000000       0.00000000       0.00000000       0.00000000       0.00000000   -4645.70507812
O        0.00000000       0.00000000       0.21919192       0.00000000       0.00000000    4645.70507812
2
Properties=species:S:1:pos:R:3:forces:R:3 energy=351.4959853034511 pbc="F F F"
O        0.00000000       0.00000000       0.00000000       0.00000000       0.00000000   -2831.34985352
O        0.00000000       0.00000000       0.27878788       0.00000000       0.00000000    2831.34985352
2
Properties=species:S:1:pos:R:3:forces:R:3 energy=184.11161641092647 pbc="F F F"
O        0.00000000       0.00000000       0.00000000       0.00000000       0.00000000   -2944.39062500
O        0.00000000       0.00000000       0.33838384       0.00000000       0.00000000    2944.39062500
2
Properties=species:S:1:pos:R:3:forces:R:3 energy=100.13616018105307 pbc="F F F"
O        0.00000000       0.00000000       0.00000000       0.00000000       0.00000000    -263.31921387
O        0.00000000       0.00000000       0.39797980       0.00000000       0.00000000     263.31921387
2
Properties=species:S:1:pos:R:3:forces:R:3 energy=86.34348136784415 pbc="F F F"
O        0.00000000       0.00000000       0.00000000       0.00000000       0.00000000    -213.97351074
O        0.00000000       0.00000000       0.45757576       0.00000000       0.00000000     213.97351074
2
Properties=species:S:1:pos:R:3:forces:R:3 energy=73.43068538297433 pbc="F F F"
O        0.00000000       0.00000000       0.00000000       0.00000000       0.00000000    -240.86688232
O        0.00000000       0.00000000       0.51717172       0.00000000       0.00000000     240.86688232
2
Properties=species:S:1:pos:R:3:forces:R:3 energy=62.39693682041374 pbc="F F F"
O        0.00000000       0.00000000       0.00000000       0.00000000       0.00000000    -190.86471558
O        0.00000000       0.00000000       0.57676768       0.00000000       0.00000000     190.86471558
2
Properties=species:S:1:pos:R:3:forces:R:3 energy=49.50930646468126 pbc="F F F"
O        0.00000000       0.00000000       0.00000000       0.00000000       0.00000000    -257.68176270
O        0.00000000       0.00000000       0.63636364       0.00000000       0.00000000     257.68176270
2
Properties=species:S:1:pos:R:3:forces:R:3 energy=31.912279812376394 pbc="F F F"
O        0.00000000       0.00000000       0.00000000       0.00000000       0.00000000    -298.95397949
O        0.00000000       0.00000000       0.69595960       0.00000000       0.00000000     298.95397949
2
Properties=species:S:1:pos:R:3:forces:R:3 energy=16.021342271713763 pbc="F F F"
O        0.00000000       0.00000000       0.00000000       0.00000000       0.00000000    -222.86277771
O        0.00000000       0.00000000       0.75555556       0.00000000       0.00000000     222.86277771
2
Properties=species:S:1:pos:R:3:forces:R:3 energy=6.355625541168654 pbc="F F F"
O        0.00000000       0.00000000       0.00000000       0.00000000       0.00000000    -111.40676880
O        0.00000000       0.00000000       0.81515152       0.00000000       0.00000000     111.40676880
2
Properties=species:S:1:pos:R:3:forces:R:3 energy=1.2644217073376638 pbc="F F F"
O        0.00000000       0.00000000       0.00000000       0.00000000       0.00000000     -68.48101044
O        0.00000000       0.00000000       0.87474747       0.00000000       0.00000000      68.48101044
2
Properties=species:S:1:pos:R:3:forces:R:3 energy=-2.423807288098096 pbc="F F F"
O        0.00000000       0.00000000       0.00000000       0.00000000       0.00000000     -56.34786987
O        0.00000000       0.00000000       0.93434343       0.00000000       0.00000000      56.34786987
2
Properties=species:S:1:pos:R:3:forces:R:3 energy=-5.373570909490398 pbc="F F F"
O        0.00000000       0.00000000       0.00000000       0.00000000       0.00000000     -42.01161194
O        0.00000000       0.00000000       0.99393939       0.00000000       0.00000000      42.01161194
2
Properties=species:S:1:pos:R:3:forces:R:3 energy=-7.428662714579308 pbc="F F F"
O        0.00000000       0.00000000       0.00000000       0.00000000       0.00000000     -27.26423264
O        0.00000000       0.00000000       1.05353535       0.00000000       0.00000000      27.26423264
2
Properties=species:S:1:pos:R:3:forces:R:3 energy=-8.67100946742247 pbc="F F F"
O        0.00000000       0.00000000       0.00000000       0.00000000       0.00000000     -14.93014431
O        0.00000000       0.00000000       1.11313131       0.00000000       0.00000000      14.93014431
2
Properties=species:S:1:pos:R:3:forces:R:3 energy=-9.279243439268114 pbc="F F F"
O        0.00000000       0.00000000       0.00000000       0.00000000       0.00000000      -6.10336781
O        0.00000000       0.00000000       1.17272727       0.00000000       0.00000000       6.10336781
2
Properties=species:S:1:pos:R:3:forces:R:3 energy=-9.464298513407858 pbc="F F F"
O        0.00000000       0.00000000       0.00000000       0.00000000       0.00000000      -0.56943238
O        0.00000000       0.00000000       1.23232323       0.00000000       0.00000000       0.56943238
2
Properties=species:S:1:pos:R:3:forces:R:3 energy=-9.392872803367606 pbc="F F F"
O        0.00000000       0.00000000       0.00000000       0.00000000       0.00000000       2.65264606
O        0.00000000       0.00000000       1.29191919       0.00000000       0.00000000      -2.65264606
2
Properties=species:S:1:pos:R:3:forces:R:3 energy=-9.176581908901229 pbc="F F F"
O        0.00000000       0.00000000       0.00000000       0.00000000       0.00000000       4.45083666
O        0.00000000       0.00000000       1.35151515       0.00000000       0.00000000      -4.45083666
2
Properties=species:S:1:pos:R:3:forces:R:3 energy=-8.872366695628179 pbc="F F F"
O        0.00000000       0.00000000       0.00000000       0.00000000       0.00000000       5.72813559
O        0.00000000       0.00000000       1.41111111       0.00000000       0.00000000      -5.72813559
2
Properties=species:S:1:pos:R:3:forces:R:3 energy=-8.492952838236151 pbc="F F F"
O        0.00000000       0.00000000       0.00000000       0.00000000       0.00000000       7.04004812
O        0.00000000       0.00000000       1.47070707       0.00000000       0.00000000      -7.04004812
2
Properties=species:S:1:pos:R:3:forces:R:3 energy=-8.028575962201062 pbc="F F F"
O        0.00000000       0.00000000       0.00000000       0.00000000       0.00000000       8.56536198
O        0.00000000       0.00000000       1.53030303       0.00000000       0.00000000      -8.56536198
2
Properties=species:S:1:pos:R:3:forces:R:3 energy=-7.475099105717192 pbc="F F F"
O        0.00000000       0.00000000       0.00000000       0.00000000       0.00000000       9.92927074
O        0.00000000       0.00000000       1.58989899       0.00000000       0.00000000      -9.92927074
2
Properties=species:S:1:pos:R:3:forces:R:3 energy=-6.859198074565222 pbc="F F F"
O        0.00000000       0.00000000       0.00000000       0.00000000       0.00000000      10.60569668
O        0.00000000       0.00000000       1.64949495       0.00000000       0.00000000     -10.60569668
2
Properties=species:S:1:pos:R:3:forces:R:3 energy=-6.224842988257394 pbc="F F F"
O        0.00000000       0.00000000       0.00000000       0.00000000       0.00000000      10.59574318
O        0.00000000       0.00000000       1.70909091       0.00000000       0.00000000     -10.59574318
2
Properties=species:S:1:pos:R:3:forces:R:3 energy=-5.60445897546525 pbc="F F F"
O        0.00000000       0.00000000       0.00000000       0.00000000       0.00000000      10.15155029
O        0.00000000       0.00000000       1.76868687       0.00000000       0.00000000     -10.15155029
2
Properties=species:S:1:pos:R:3:forces:R:3 energy=-5.027640870642318 pbc="F F F"
O        0.00000000       0.00000000       0.00000000       0.00000000       0.00000000       9.06037426
O        0.00000000       0.00000000       1.82828283       0.00000000       0.00000000      -9.06037426
2
Properties=species:S:1:pos:R:3:forces:R:3 energy=-4.542456685315752 pbc="F F F"
O        0.00000000       0.00000000       0.00000000       0.00000000       0.00000000       7.10503912
O        0.00000000       0.00000000       1.88787879       0.00000000       0.00000000      -7.10503912
2
Properties=species:S:1:pos:R:3:forces:R:3 energy=-4.18546846795815 pbc="F F F"
O        0.00000000       0.00000000       0.00000000       0.00000000       0.00000000       4.92068481
O        0.00000000       0.00000000       1.94747475       0.00000000       0.00000000      -4.92068481
2
Properties=species:S:1:pos:R:3:forces:R:3 energy=-3.9433009181976075 pbc="F F F"
O        0.00000000       0.00000000       0.00000000       0.00000000       0.00000000       3.34481192
O        0.00000000       0.00000000       2.00707071       0.00000000       0.00000000      -3.34481192
2
Properties=species:S:1:pos:R:3:forces:R:3 energy=-3.77103683958774 pbc="F F F"
O        0.00000000       0.00000000       0.00000000       0.00000000       0.00000000       2.54518890
O        0.00000000       0.00000000       2.06666667       0.00000000       0.00000000      -2.54518890
2
Properties=species:S:1:pos:R:3:forces:R:3 energy=-3.6309135058748967 pbc="F F F"
O        0.00000000       0.00000000       0.00000000       0.00000000       0.00000000       2.20119190
O        0.00000000       0.00000000       2.12626263       0.00000000       0.00000000      -2.20119190
2
Properties=species:S:1:pos:R:3:forces:R:3 energy=-3.5062613093175266 pbc="F F F"
O        0.00000000       0.00000000       0.00000000       0.00000000       0.00000000       1.98529661
O        0.00000000       0.00000000       2.18585859       0.00000000       0.00000000      -1.98529661
2
Properties=species:S:1:pos:R:3:forces:R:3 energy=-3.3948740701444047 pbc="F F F"
O        0.00000000       0.00000000       0.00000000       0.00000000       0.00000000       1.74410403
O        0.00000000       0.00000000       2.24545455       0.00000000       0.00000000      -1.74410403
2
Properties=species:S:1:pos:R:3:forces:R:3 energy=-3.299304144063981 pbc="F F F"
O        0.00000000       0.00000000       0.00000000       0.00000000       0.00000000       1.45776641
O        0.00000000       0.00000000       2.30505051       0.00000000       0.00000000      -1.45776641
2
Properties=species:S:1:pos:R:3:forces:R:3 energy=-3.221384941519072 pbc="F F F"
O        0.00000000       0.00000000       0.00000000       0.00000000       0.00000000       1.15804660
O        0.00000000       0.00000000       2.36464646       0.00000000       0.00000000      -1.15804660
2
Properties=species:S:1:pos:R:3:forces:R:3 energy=-3.1608699021408126 pbc="F F F"
O        0.00000000       0.00000000       0.00000000       0.00000000       0.00000000       0.87811041
O        0.00000000       0.00000000       2.42424242       0.00000000       0.00000000      -0.87811041
2
Properties=species:S:1:pos:R:3:forces:R:3 energy=-3.1159568484800984 pbc="F F F"
O        0.00000000       0.00000000       0.00000000       0.00000000       0.00000000       0.63620961
O        0.00000000       0.00000000       2.48383838       0.00000000       0.00000000      -0.63620961
2
Properties=species:S:1:pos:R:3:forces:R:3 energy=-3.0841868739439966 pbc="F F F"
O        0.00000000       0.00000000       0.00000000       0.00000000       0.00000000       0.43692100
O        0.00000000       0.00000000       2.54343434       0.00000000       0.00000000      -0.43692100
2
Properties=species:S:1:pos:R:3:forces:R:3 energy=-3.063092408843257 pbc="F F F"
O        0.00000000       0.00000000       0.00000000       0.00000000       0.00000000       0.27712721
O        0.00000000       0.00000000       2.60303030       0.00000000       0.00000000      -0.27712721
2
Properties=species:S:1:pos:R:3:forces:R:3 energy=-3.050487889862144 pbc="F F F"
O        0.00000000       0.00000000       0.00000000       0.00000000       0.00000000       0.15098241
O        0.00000000       0.00000000       2.66262626       0.00000000       0.00000000      -0.15098241
2
Properties=species:S:1:pos:R:3:forces:R:3 energy=-3.044543700704224 pbc="F F F"
O        0.00000000       0.00000000       0.00000000       0.00000000       0.00000000       0.05270097
O        0.00000000       0.00000000       2.72222222       0.00000000       0.00000000      -0.05270097
2
Properties=species:S:1:pos:R:3:forces:R:3 energy=-3.043748292048691 pbc="F F F"
O        0.00000000       0.00000000       0.00000000       0.00000000       0.00000000      -0.02249458
O        0.00000000       0.00000000       2.78181818       0.00000000       0.00000000       0.02249458
2
Properties=species:S:1:pos:R:3:forces:R:3 energy=-3.0468404730497642 pbc="F F F"
O        0.00000000       0.00000000       0.00000000       0.00000000       0.00000000      -0.07831520
O        0.00000000       0.00000000       2.84141414       0.00000000       0.00000000       0.07831520
2
Properties=species:S:1:pos:R:3:forces:R:3 energy=-3.0527567406295977 pbc="F F F"
O        0.00000000       0.00000000       0.00000000       0.00000000       0.00000000      -0.11771234
O        0.00000000       0.00000000       2.90101010       0.00000000       0.00000000       0.11771234
2
Properties=species:S:1:pos:R:3:forces:R:3 energy=-3.060594056085629 pbc="F F F"
O        0.00000000       0.00000000       0.00000000       0.00000000       0.00000000      -0.14318711
O        0.00000000       0.00000000       2.96060606       0.00000000       0.00000000       0.14318711
2
Properties=species:S:1:pos:R:3:forces:R:3 energy=-3.069591486859989 pbc="F F F"
O        0.00000000       0.00000000       0.00000000       0.00000000       0.00000000      -0.15698515
O        0.00000000       0.00000000       3.02020202       0.00000000       0.00000000       0.15698515
2
Properties=species:S:1:pos:R:3:forces:R:3 energy=-3.079115368358754 pbc="F F F"
O        0.00000000       0.00000000       0.00000000       0.00000000       0.00000000      -0.16118915
O        0.00000000       0.00000000       3.07979798       0.00000000       0.00000000       0.16118915
2
Properties=species:S:1:pos:R:3:forces:R:3 energy=-3.0886521121927735 pbc="F F F"
O        0.00000000       0.00000000       0.00000000       0.00000000       0.00000000      -0.15773965
O        0.00000000       0.00000000       3.13939394       0.00000000       0.00000000       0.15773965
2
Properties=species:S:1:pos:R:3:forces:R:3 energy=-3.097800280551806 pbc="F F F"
O        0.00000000       0.00000000       0.00000000       0.00000000       0.00000000      -0.14842147
O        0.00000000       0.00000000       3.19898990       0.00000000       0.00000000       0.14842147
2
Properties=species:S:1:pos:R:3:forces:R:3 energy=-3.106258356372942 pbc="F F F"
O        0.00000000       0.00000000       0.00000000       0.00000000       0.00000000      -0.13484780
O        0.00000000       0.00000000       3.25858586       0.00000000       0.00000000       0.13484780
2
Properties=species:S:1:pos:R:3:forces:R:3 energy=-3.113816584047893 pbc="F F F"
O        0.00000000       0.00000000       0.00000000       0.00000000       0.00000000      -0.11843096
O        0.00000000       0.00000000       3.31818182       0.00000000       0.00000000       0.11843096
2
Properties=species:S:1:pos:R:3:forces:R:3 energy=-3.1203421221347565 pbc="F F F"
O        0.00000000       0.00000000       0.00000000       0.00000000       0.00000000      -0.10037746
O        0.00000000       0.00000000       3.37777778       0.00000000       0.00000000       0.10037746
2
Properties=species:S:1:pos:R:3:forces:R:3 energy=-3.125768025022244 pbc="F F F"
O        0.00000000       0.00000000       0.00000000       0.00000000       0.00000000      -0.08168221
O        0.00000000       0.00000000       3.43737374       0.00000000       0.00000000       0.08168221
2
Properties=species:S:1:pos:R:3:forces:R:3 energy=-3.130081278443173 pbc="F F F"
O        0.00000000       0.00000000       0.00000000       0.00000000       0.00000000      -0.06314856
O        0.00000000       0.00000000       3.49696970       0.00000000       0.00000000       0.06314856
2
Properties=species:S:1:pos:R:3:forces:R:3 energy=-3.1333108512230434 pbc="F F F"
O        0.00000000       0.00000000       0.00000000       0.00000000       0.00000000      -0.04540918
O        0.00000000       0.00000000       3.55656566       0.00000000       0.00000000       0.04540918
2
Properties=species:S:1:pos:R:3:forces:R:3 energy=-3.135519343106193 pbc="F F F"
O        0.00000000       0.00000000       0.00000000       0.00000000       0.00000000      -0.02895741
O        0.00000000       0.00000000       3.61616162       0.00000000       0.00000000       0.02895741
2
Properties=species:S:1:pos:R:3:forces:R:3 energy=-3.1367953359583574 pbc="F F F"
O        0.00000000       0.00000000       0.00000000       0.00000000       0.00000000      -0.01417005
O        0.00000000       0.00000000       3.67575758       0.00000000       0.00000000       0.01417005
2
Properties=species:S:1:pos:R:3:forces:R:3 energy=-3.137246976461906 pbc="F F F"
O        0.00000000       0.00000000       0.00000000       0.00000000       0.00000000      -0.00132950
O        0.00000000       0.00000000       3.73535354       0.00000000       0.00000000       0.00132950
2
Properties=species:S:1:pos:R:3:forces:R:3 energy=-3.1369965017940076 pbc="F F F"
O        0.00000000       0.00000000       0.00000000       0.00000000       0.00000000       0.00936443
O        0.00000000       0.00000000       3.79494949       0.00000000       0.00000000      -0.00936443
2
Properties=species:S:1:pos:R:3:forces:R:3 energy=-3.1361759708609216 pbc="F F F"
O        0.00000000       0.00000000       0.00000000       0.00000000       0.00000000       0.01778582
O        0.00000000       0.00000000       3.85454545       0.00000000       0.00000000      -0.01778582
2
Properties=species:S:1:pos:R:3:forces:R:3 energy=-3.134922756519754 pbc="F F F"
O        0.00000000       0.00000000       0.00000000       0.00000000       0.00000000       0.02388096
O        0.00000000       0.00000000       3.91414141       0.00000000       0.00000000      -0.02388096
2
Properties=species:S:1:pos:R:3:forces:R:3 energy=-3.133375281762476 pbc="F F F"
O        0.00000000       0.00000000       0.00000000       0.00000000       0.00000000       0.02768017
O        0.00000000       0.00000000       3.97373737       0.00000000       0.00000000      -0.02768017
2
Properties=species:S:1:pos:R:3:forces:R:3 energy=-3.1316666079548554 pbc="F F F"
O        0.00000000       0.00000000       0.00000000       0.00000000       0.00000000       0.02932231
O        0.00000000       0.00000000       4.03333333       0.00000000       0.00000000      -0.02932231
2
Properties=species:S:1:pos:R:3:forces:R:3 energy=-3.1299177816869728 pbc="F F F"
O        0.00000000       0.00000000       0.00000000       0.00000000       0.00000000       0.02907841
O        0.00000000       0.00000000       4.09292929       0.00000000       0.00000000      -0.02907841
2
Properties=species:S:1:pos:R:3:forces:R:3 energy=-3.128229752498189 pbc="F F F"
O        0.00000000       0.00000000       0.00000000       0.00000000       0.00000000       0.02735890
O        0.00000000       0.00000000       4.15252525       0.00000000       0.00000000      -0.02735890
2
Properties=species:S:1:pos:R:3:forces:R:3 energy=-3.126675524070966 pbc="F F F"
O        0.00000000       0.00000000       0.00000000       0.00000000       0.00000000       0.02469296
O        0.00000000       0.00000000       4.21212121       0.00000000       0.00000000      -0.02469296
2
Properties=species:S:1:pos:R:3:forces:R:3 energy=-3.125293733362309 pbc="F F F"
O        0.00000000       0.00000000       0.00000000       0.00000000       0.00000000       0.02166781
O        0.00000000       0.00000000       4.27171717       0.00000000       0.00000000      -0.02166781
2
Properties=species:S:1:pos:R:3:forces:R:3 energy=-3.1240893816986164 pbc="F F F"
O        0.00000000       0.00000000       0.00000000       0.00000000       0.00000000       0.01883479
O        0.00000000       0.00000000       4.33131313       0.00000000       0.00000000      -0.01883479
2
Properties=species:S:1:pos:R:3:forces:R:3 energy=-3.123036704609131 pbc="F F F"
O        0.00000000       0.00000000       0.00000000       0.00000000       0.00000000       0.01661214
O        0.00000000       0.00000000       4.39090909       0.00000000       0.00000000      -0.01661214
2
Properties=species:S:1:pos:R:3:forces:R:3 energy=-3.122093012774819 pbc="F F F"
O        0.00000000       0.00000000       0.00000000       0.00000000       0.00000000       0.01520478
O        0.00000000       0.00000000       4.45050505       0.00000000       0.00000000      -0.01520478
2
Properties=species:S:1:pos:R:3:forces:R:3 energy=-3.121208711449363 pbc="F F F"
O        0.00000000       0.00000000       0.00000000       0.00000000       0.00000000       0.01458913
O        0.00000000       0.00000000       4.51010101       0.00000000       0.00000000      -0.01458913
2
Properties=species:S:1:pos:R:3:forces:R:3 energy=-3.1203423228095355 pbc="F F F"
O        0.00000000       0.00000000       0.00000000       0.00000000       0.00000000       0.01455127
O        0.00000000       0.00000000       4.56969697       0.00000000       0.00000000      -0.01455127
2
Properties=species:S:1:pos:R:3:forces:R:3 energy=-3.1194686028782876 pbc="F F F"
O        0.00000000       0.00000000       0.00000000       0.00000000       0.00000000       0.01479081
O        0.00000000       0.00000000       4.62929293       0.00000000       0.00000000      -0.01479081
2
Properties=species:S:1:pos:R:3:forces:R:3 energy=-3.1185794921302366 pbc="F F F"
O        0.00000000       0.00000000       0.00000000       0.00000000       0.00000000       0.01503605
O        0.00000000       0.00000000       4.68888889       0.00000000       0.00000000      -0.01503605
2
Properties=species:S:1:pos:R:3:forces:R:3 energy=-3.117679353455729 pbc="F F F"
O        0.00000000       0.00000000       0.00000000       0.00000000       0.00000000       0.01514074
O        0.00000000       0.00000000       4.74848485       0.00000000       0.00000000      -0.01514074
2
Properties=species:S:1:pos:R:3:forces:R:3 energy=-3.116777337222622 pbc="F F F"
O        0.00000000       0.00000000       0.00000000       0.00000000       0.00000000       0.01511907
O        0.00000000       0.00000000       4.80808081       0.00000000       0.00000000      -0.01511907
2
Properties=species:S:1:pos:R:3:forces:R:3 energy=-3.11587689907534 pbc="F F F"
O        0.00000000       0.00000000       0.00000000       0.00000000       0.00000000       0.01512093
O        0.00000000       0.00000000       4.86767677       0.00000000       0.00000000      -0.01512093
2
Properties=species:S:1:pos:R:3:forces:R:3 energy=-3.114970311209341 pbc="F F F"
O        0.00000000       0.00000000       0.00000000       0.00000000       0.00000000       0.01536698
O        0.00000000       0.00000000       4.92727273       0.00000000       0.00000000      -0.01536698
2
Properties=species:S:1:pos:R:3:forces:R:3 energy=-3.1140362784823097 pbc="F F F"
O        0.00000000       0.00000000       0.00000000       0.00000000       0.00000000       0.01606714
O        0.00000000       0.00000000       4.98686869       0.00000000       0.00000000      -0.01606714
2
Properties=species:S:1:pos:R:3:forces:R:3 energy=-3.1130437536558944 pbc="F F F"
O        0.00000000       0.00000000       0.00000000       0.00000000       0.00000000       0.01734270
O        0.00000000       0.00000000       5.04646465       0.00000000       0.00000000      -0.01734270
2
Properties=species:S:1:pos:R:3:forces:R:3 energy=-3.1119581326159658 pbc="F F F"
O        0.00000000       0.00000000       0.00000000       0.00000000       0.00000000       0.01917377
O        0.00000000       0.00000000       5.10606061       0.00000000       0.00000000      -0.01917377
2
Properties=species:S:1:pos:R:3:forces:R:3 energy=-3.1107507936401415 pbc="F F F"
O        0.00000000       0.00000000       0.00000000       0.00000000       0.00000000       0.02137717
O        0.00000000       0.00000000       5.16565657       0.00000000       0.00000000      -0.02137717
2
Properties=species:S:1:pos:R:3:forces:R:3 energy=-3.109408869144221 pbc="F F F"
O        0.00000000       0.00000000       0.00000000       0.00000000       0.00000000       0.02363074
O        0.00000000       0.00000000       5.22525253       0.00000000       0.00000000      -0.02363074
2
Properties=species:S:1:pos:R:3:forces:R:3 energy=-3.1079412045132546 pbc="F F F"
O        0.00000000       0.00000000       0.00000000       0.00000000       0.00000000       0.02553692
O        0.00000000       0.00000000       5.28484848       0.00000000       0.00000000      -0.02553692
2
Properties=species:S:1:pos:R:3:forces:R:3 energy=-3.1063797898009495 pbc="F F F"
O        0.00000000       0.00000000       0.00000000       0.00000000       0.00000000       0.02670766
O        0.00000000       0.00000000       5.34444444       0.00000000       0.00000000      -0.02670766
2
Properties=species:S:1:pos:R:3:forces:R:3 energy=-3.1047783255801527 pbc="F F F"
O        0.00000000       0.00000000       0.00000000       0.00000000       0.00000000       0.02684932
O        0.00000000       0.00000000       5.40404040       0.00000000       0.00000000      -0.02684932
2
Properties=species:S:1:pos:R:3:forces:R:3 energy=-3.1032026868678977 pbc="F F F"
O        0.00000000       0.00000000       0.00000000       0.00000000       0.00000000       0.02582030
O        0.00000000       0.00000000       5.46363636       0.00000000       0.00000000      -0.02582030
2
Properties=species:S:1:pos:R:3:forces:R:3 energy=-3.101724006734486 pbc="F F F"
O        0.00000000       0.00000000       0.00000000       0.00000000       0.00000000       0.02365244
O        0.00000000       0.00000000       5.52323232       0.00000000       0.00000000      -0.02365244
2
Properties=species:S:1:pos:R:3:forces:R:3 energy=-3.100402940850509 pbc="F F F"
O        0.00000000       0.00000000       0.00000000       0.00000000       0.00000000       0.02053819
O        0.00000000       0.00000000       5.58282828       0.00000000       0.00000000      -0.02053819
2
Properties=species:S:1:pos:R:3:forces:R:3 energy=-3.099288711411914 pbc="F F F"
O        0.00000000       0.00000000       0.00000000       0.00000000       0.00000000       0.01678278
O        0.00000000       0.00000000       5.64242424       0.00000000       0.00000000      -0.01678278
2
Properties=species:S:1:pos:R:3:forces:R:3 energy=-3.098407663493685 pbc="F F F"
O        0.00000000       0.00000000       0.00000000       0.00000000       0.00000000       0.01275129
O        0.00000000       0.00000000       5.70202020       0.00000000       0.00000000      -0.01275129
2
Properties=species:S:1:pos:R:3:forces:R:3 energy=-3.0977670781136966 pbc="F F F"
O        0.00000000       0.00000000       0.00000000       0.00000000       0.00000000       0.00881981
O        0.00000000       0.00000000       5.76161616       0.00000000       0.00000000      -0.00881981
2
Properties=species:S:1:pos:R:3:forces:R:3 energy=-3.0973475422689685 pbc="F F F"
O        0.00000000       0.00000000       0.00000000       0.00000000       0.00000000       0.00534246
O        0.00000000       0.00000000       5.82121212       0.00000000       0.00000000      -0.00534246
2
Properties=species:S:1:pos:R:3:forces:R:3 energy=-3.0971158229449665 pbc="F F F"
O        0.00000000       0.00000000       0.00000000       0.00000000       0.00000000       0.00260809
O        0.00000000       0.00000000       5.88080808       0.00000000       0.00000000      -0.00260809
2
Properties=species:S:1:pos:R:3:forces:R:3 energy=-3.0970172367806277 pbc="F F F"
O        0.00000000       0.00000000       0.00000000       0.00000000       0.00000000       0.00084546
O        0.00000000       0.00000000       5.94040404       0.00000000       0.00000000      -0.00084546
2
Properties=species:S:1:pos:R:3:forces:R:3 energy=-3.096991862185256 pbc="F F F"
O        0.00000000       0.00000000       0.00000000       0.00000000       0.00000000       0.00021801
O        0.00000000       0.00000000       6.00000000       0.00000000       0.00000000      -0.00021801
