2
Properties=species:S:1:pos:R:3:forces:R:3 energy=85570.00447911753 pbc="F F F"
Os       0.00000000       0.00000000       0.00000000       0.00000000       0.00000000 -2159199.75000000
Os       0.00000000       0.00000000       0.10000000       0.00000000       0.00000000 2159199.75000000
2
Properties=species:S:1:pos:R:3:forces:R:3 energy=23668.199791617524 pbc="F F F"
Os       0.00000000       0.00000000       0.00000000       0.00000000       0.00000000 -442862.18750000
Os       0.00000000       0.00000000       0.15959596       0.00000000       0.00000000  442862.18750000
2
Properties=species:S:1:pos:R:3:forces:R:3 energy=8672.323815055026 pbc="F F F"
Os       0.00000000       0.00000000       0.00000000       0.00000000       0.00000000 -132445.15625000
Os       0.00000000       0.00000000       0.21919192       0.00000000       0.00000000  132445.15625000
2
Properties=species:S:1:pos:R:3:forces:R:3 energy=3756.3758170081505 pbc="F F F"
Os       0.00000000       0.00000000       0.00000000       0.00000000       0.00000000  -48423.75781250
Os       0.00000000       0.00000000       0.27878788       0.00000000       0.00000000   48423.75781250
2
Properties=species:S:1:pos:R:3:forces:R:3 energy=1858.320885373861 pbc="F F F"
Os       0.00000000       0.00000000       0.00000000       0.00000000       0.00000000  -19931.78320312
Os       0.00000000       0.00000000       0.33838384       0.00000000       0.00000000   19931.78320312
2
Properties=species:S:1:pos:R:3:forces:R:3 energy=1048.0116812722986 pbc="F F F"
Os       0.00000000       0.00000000       0.00000000       0.00000000       0.00000000   -8886.04394531
Os       0.00000000       0.00000000       0.39797980       0.00000000       0.00000000    8886.04394531
2
Properties=species:S:1:pos:R:3:forces:R:3 energy=676.7387320598843 pbc="F F F"
Os       0.00000000       0.00000000       0.00000000       0.00000000       0.00000000   -4206.15039062
Os       0.00000000       0.00000000       0.45757576       0.00000000       0.00000000    4206.15039062
2
Properties=species:S:1:pos:R:3:forces:R:3 energy=497.11541053935247 pbc="F F F"
Os       0.00000000       0.00000000       0.00000000       0.00000000       0.00000000   -2089.30883789
Os       0.00000000       0.00000000       0.51717172       0.00000000       0.00000000    2089.30883789
2
Properties=species:S:1:pos:R:3:forces:R:3 energy=405.9560172541482 pbc="F F F"
Os       0.00000000       0.00000000       0.00000000       0.00000000       0.00000000   -1093.20263672
Os       0.00000000       0.00000000       0.57676768       0.00000000       0.00000000    1093.20263672
2
Properties=species:S:1:pos:R:3:forces:R:3 energy=356.23986128313487 pbc="F F F"
Os       0.00000000       0.00000000       0.00000000       0.00000000       0.00000000    -639.70129395
Os       0.00000000       0.00000000       0.63636364       0.00000000       0.00000000     639.70129395
2
Properties=species:S:1:pos:R:3:forces:R:3 energy=323.7557610046944 pbc="F F F"
Os       0.00000000       0.00000000       0.00000000       0.00000000       0.00000000    -489.71224976
Os       0.00000000       0.00000000       0.69595960       0.00000000       0.00000000     489.71224976
2
Properties=species:S:1:pos:R:3:forces:R:3 energy=294.11690611926036 pbc="F F F"
Os       0.00000000       0.00000000       0.00000000       0.00000000       0.00000000    -529.13342285
Os       0.00000000       0.00000000       0.75555556       0.00000000       0.00000000     529.13342285
2
Properties=species:S:1:pos:R:3:forces:R:3 energy=258.7434626582967 pbc="F F F"
Os       0.00000000       0.00000000       0.00000000       0.00000000       0.00000000    -665.65332031
Os       0.00000000       0.00000000       0.81515152       0.00000000       0.00000000     665.65332031
2
Properties=species:S:1:pos:R:3:forces:R:3 energy=214.97112399384983 pbc="F F F"
Os       0.00000000       0.00000000       0.00000000       0.00000000       0.00000000    -792.14099121
Os       0.00000000       0.00000000       0.87474747       0.00000000       0.00000000     792.14099121
2
Properties=species:S:1:pos:R:3:forces:R:3 energy=167.04009401185195 pbc="F F F"
Os       0.00000000       0.00000000       0.00000000       0.00000000       0.00000000    -783.93481445
Os       0.00000000       0.00000000       0.93434343       0.00000000       0.00000000     783.93481445
2
Properties=species:S:1:pos:R:3:forces:R:3 energy=124.0357532886771 pbc="F F F"
Os       0.00000000       0.00000000       0.00000000       0.00000000       0.00000000    -653.85845947
Os       0.00000000       0.00000000       0.99393939       0.00000000       0.00000000     653.85845947
2
Properties=species:S:1:pos:R:3:forces:R:3 energy=89.43390141655031 pbc="F F F"
Os       0.00000000       0.00000000       0.00000000       0.00000000       0.00000000    -506.11410522
Os       0.00000000       0.00000000       1.05353535       0.00000000       0.00000000     506.11410522
2
Properties=species:S:1:pos:R:3:forces:R:3 energy=63.43706071448535 pbc="F F F"
Os       0.00000000       0.00000000       0.00000000       0.00000000       0.00000000    -371.77261353
Os       0.00000000       0.00000000       1.11313131       0.00000000       0.00000000     371.77261353
2
Properties=species:S:1:pos:R:3:forces:R:3 energy=44.38045156374576 pbc="F F F"
Os       0.00000000       0.00000000       0.00000000       0.00000000       0.00000000    -273.09036255
Os       0.00000000       0.00000000       1.17272727       0.00000000       0.00000000     273.09036255
2
Properties=species:S:1:pos:R:3:forces:R:3 energy=30.436616602877308 pbc="F F F"
Os       0.00000000       0.00000000       0.00000000       0.00000000       0.00000000    -197.69013977
Os       0.00000000       0.00000000       1.23232323       0.00000000       0.00000000     197.69013977
2
Properties=species:S:1:pos:R:3:forces:R:3 energy=20.454739925155664 pbc="F F F"
Os       0.00000000       0.00000000       0.00000000       0.00000000       0.00000000    -141.22021484
Os       0.00000000       0.00000000       1.29191919       0.00000000       0.00000000     141.22021484
2
Properties=species:S:1:pos:R:3:forces:R:3 energy=13.056073669712914 pbc="F F F"
Os       0.00000000       0.00000000       0.00000000       0.00000000       0.00000000    -110.85839844
Os       0.00000000       0.00000000       1.35151515       0.00000000       0.00000000     110.85839844
2
Properties=species:S:1:pos:R:3:forces:R:3 energy=7.009304226139381 pbc="F F F"
Os       0.00000000       0.00000000       0.00000000       0.00000000       0.00000000     -92.87647247
Os       0.00000000       0.00000000       1.41111111       0.00000000       0.00000000      92.87647247
2
Properties=species:S:1:pos:R:3:forces:R:3 energy=1.960638557914946 pbc="F F F"
Os       0.00000000       0.00000000       0.00000000       0.00000000       0.00000000     -76.19201660
Os       0.00000000       0.00000000       1.47070707       0.00000000       0.00000000      76.19201660
2
Properties=species:S:1:pos:R:3:forces:R:3 energy=-2.0115512287743114 pbc="F F F"
Os       0.00000000       0.00000000       0.00000000       0.00000000       0.00000000     -56.89433670
Os       0.00000000       0.00000000       1.53030303       0.00000000       0.00000000      56.89433670
2
Properties=species:S:1:pos:R:3:forces:R:3 energy=-4.862886688561991 pbc="F F F"
Os       0.00000000       0.00000000       0.00000000       0.00000000       0.00000000     -39.58213806
Os       0.00000000       0.00000000       1.58989899       0.00000000       0.00000000      39.58213806
2
Properties=species:S:1:pos:R:3:forces:R:3 energy=-6.8300505960843765 pbc="F F F"
Os       0.00000000       0.00000000       0.00000000       0.00000000       0.00000000     -27.15303230
Os       0.00000000       0.00000000       1.64949495       0.00000000       0.00000000      27.15303230
2
Properties=species:S:1:pos:R:3:forces:R:3 energy=-8.163387056707295 pbc="F F F"
Os       0.00000000       0.00000000       0.00000000       0.00000000       0.00000000     -18.00657845
Os       0.00000000       0.00000000       1.70909091       0.00000000       0.00000000      18.00657845
2
Properties=species:S:1:pos:R:3:forces:R:3 energy=-9.021525386479869 pbc="F F F"
Os       0.00000000       0.00000000       0.00000000       0.00000000       0.00000000     -11.16583729
Os       0.00000000       0.00000000       1.76868687       0.00000000       0.00000000      11.16583729
2
Properties=species:S:1:pos:R:3:forces:R:3 energy=-9.537686219995658 pbc="F F F"
Os       0.00000000       0.00000000       0.00000000       0.00000000       0.00000000      -6.49277544
Os       0.00000000       0.00000000       1.82828283       0.00000000       0.00000000       6.49277544
2
Properties=species:S:1:pos:R:3:forces:R:3 energy=-9.829418623365642 pbc="F F F"
Os       0.00000000       0.00000000       0.00000000       0.00000000       0.00000000      -3.52415419
Os       0.00000000       0.00000000       1.88787879       0.00000000       0.00000000       3.52415419
2
Properties=species:S:1:pos:R:3:forces:R:3 energy=-9.977909391661385 pbc="F F F"
Os       0.00000000       0.00000000       0.00000000       0.00000000       0.00000000      -1.57800603
Os       0.00000000       0.00000000       1.94747475       0.00000000       0.00000000       1.57800603
2
Properties=species:S:1:pos:R:3:forces:R:3 energy=-10.027377712814241 pbc="F F F"
Os       0.00000000       0.00000000       0.00000000       0.00000000       0.00000000      -0.13866821
Os       0.00000000       0.00000000       2.00707071       0.00000000       0.00000000       0.13866821
2
Properties=species:S:1:pos:R:3:forces:R:3 energy=-9.999598258635356 pbc="F F F"
Os       0.00000000       0.00000000       0.00000000       0.00000000       0.00000000       1.03435445
Os       0.00000000       0.00000000       2.06666667       0.00000000       0.00000000      -1.03435445
2
Properties=species:S:1:pos:R:3:forces:R:3 energy=-9.908350922108857 pbc="F F F"
Os       0.00000000       0.00000000       0.00000000       0.00000000       0.00000000       1.99114943
Os       0.00000000       0.00000000       2.12626263       0.00000000       0.00000000      -1.99114943
2
Properties=species:S:1:pos:R:3:forces:R:3 energy=-9.766759610361628 pbc="F F F"
Os       0.00000000       0.00000000       0.00000000       0.00000000       0.00000000       2.72299504
Os       0.00000000       0.00000000       2.18585859       0.00000000       0.00000000      -2.72299504
2
Properties=species:S:1:pos:R:3:forces:R:3 energy=-9.587987181480637 pbc="F F F"
Os       0.00000000       0.00000000       0.00000000       0.00000000       0.00000000       3.24480963
Os       0.00000000       0.00000000       2.24545455       0.00000000       0.00000000      -3.24480963
2
Properties=species:S:1:pos:R:3:forces:R:3 energy=-9.383270444117779 pbc="F F F"
Os       0.00000000       0.00000000       0.00000000       0.00000000       0.00000000       3.60208893
Os       0.00000000       0.00000000       2.30505051       0.00000000       0.00000000      -3.60208893
2
Properties=species:S:1:pos:R:3:forces:R:3 energy=-9.161072178824252 pbc="F F F"
Os       0.00000000       0.00000000       0.00000000       0.00000000       0.00000000       3.83616090
Os       0.00000000       0.00000000       2.36464646       0.00000000       0.00000000      -3.83616090
2
Properties=species:S:1:pos:R:3:forces:R:3 energy=-8.928229164563449 pbc="F F F"
Os       0.00000000       0.00000000       0.00000000       0.00000000       0.00000000       3.95879602
Os       0.00000000       0.00000000       2.42424242       0.00000000       0.00000000      -3.95879602
2
Properties=species:S:1:pos:R:3:forces:R:3 energy=-8.691564051753632 pbc="F F F"
Os       0.00000000       0.00000000       0.00000000       0.00000000       0.00000000       3.96373940
Os       0.00000000       0.00000000       2.48383838       0.00000000       0.00000000      -3.96373940
2
Properties=species:S:1:pos:R:3:forces:R:3 energy=-8.458033436782069 pbc="F F F"
Os       0.00000000       0.00000000       0.00000000       0.00000000       0.00000000       3.85627627
Os       0.00000000       0.00000000       2.54343434       0.00000000       0.00000000      -3.85627627
2
Properties=species:S:1:pos:R:3:forces:R:3 energy=-8.233634253518312 pbc="F F F"
Os       0.00000000       0.00000000       0.00000000       0.00000000       0.00000000       3.66309953
Os       0.00000000       0.00000000       2.60303030       0.00000000       0.00000000      -3.66309953
2
Properties=species:S:1:pos:R:3:forces:R:3 energy=-8.022456782841177 pbc="F F F"
Os       0.00000000       0.00000000       0.00000000       0.00000000       0.00000000       3.41758680
Os       0.00000000       0.00000000       2.66262626       0.00000000       0.00000000      -3.41758680
2
Properties=species:S:1:pos:R:3:forces:R:3 energy=-7.826767377307389 pbc="F F F"
Os       0.00000000       0.00000000       0.00000000       0.00000000       0.00000000       3.14763236
Os       0.00000000       0.00000000       2.72222222       0.00000000       0.00000000      -3.14763236
2
Properties=species:S:1:pos:R:3:forces:R:3 energy=-7.647266050905017 pbc="F F F"
Os       0.00000000       0.00000000       0.00000000       0.00000000       0.00000000       2.87860656
Os       0.00000000       0.00000000       2.78181818       0.00000000       0.00000000      -2.87860656
2
Properties=species:S:1:pos:R:3:forces:R:3 energy=-7.483166710245858 pbc="F F F"
Os       0.00000000       0.00000000       0.00000000       0.00000000       0.00000000       2.63410807
Os       0.00000000       0.00000000       2.84141414       0.00000000       0.00000000      -2.63410807
2
Properties=species:S:1:pos:R:3:forces:R:3 energy=-7.332511018706074 pbc="F F F"
Os       0.00000000       0.00000000       0.00000000       0.00000000       0.00000000       2.42922688
Os       0.00000000       0.00000000       2.90101010       0.00000000       0.00000000      -2.42922688
2
Properties=species:S:1:pos:R:3:forces:R:3 energy=-7.19266070752855 pbc="F F F"
Os       0.00000000       0.00000000       0.00000000       0.00000000       0.00000000       2.27260280
Os       0.00000000       0.00000000       2.96060606       0.00000000       0.00000000      -2.27260280
2
Properties=species:S:1:pos:R:3:forces:R:3 energy=-7.060631996823965 pbc="F F F"
Os       0.00000000       0.00000000       0.00000000       0.00000000       0.00000000       2.16597104
Os       0.00000000       0.00000000       3.02020202       0.00000000       0.00000000      -2.16597104
2
Properties=species:S:1:pos:R:3:forces:R:3 energy=-6.933733048079417 pbc="F F F"
Os       0.00000000       0.00000000       0.00000000       0.00000000       0.00000000       2.09717774
Os       0.00000000       0.00000000       3.07979798       0.00000000       0.00000000      -2.09717774
2
Properties=species:S:1:pos:R:3:forces:R:3 energy=-6.810407671088807 pbc="F F F"
Os       0.00000000       0.00000000       0.00000000       0.00000000       0.00000000       2.04121733
Os       0.00000000       0.00000000       3.13939394       0.00000000       0.00000000      -2.04121733
2
Properties=species:S:1:pos:R:3:forces:R:3 energy=-6.690756780561554 pbc="F F F"
Os       0.00000000       0.00000000       0.00000000       0.00000000       0.00000000       1.96935809
Os       0.00000000       0.00000000       3.19898990       0.00000000       0.00000000      -1.96935809
2
Properties=species:S:1:pos:R:3:forces:R:3 energy=-6.57644606980721 pbc="F F F"
Os       0.00000000       0.00000000       0.00000000       0.00000000       0.00000000       1.85921609
Os       0.00000000       0.00000000       3.25858586       0.00000000       0.00000000      -1.85921609
2
Properties=species:S:1:pos:R:3:forces:R:3 energy=-6.470110928780441 pbc="F F F"
Os       0.00000000       0.00000000       0.00000000       0.00000000       0.00000000       1.70135438
Os       0.00000000       0.00000000       3.31818182       0.00000000       0.00000000      -1.70135438
2
Properties=species:S:1:pos:R:3:forces:R:3 energy=-6.374518904668198 pbc="F F F"
Os       0.00000000       0.00000000       0.00000000       0.00000000       0.00000000       1.50056064
Os       0.00000000       0.00000000       3.37777778       0.00000000       0.00000000      -1.50056064
2
Properties=species:S:1:pos:R:3:forces:R:3 energy=-6.291803626997399 pbc="F F F"
Os       0.00000000       0.00000000       0.00000000       0.00000000       0.00000000       1.27238274
Os       0.00000000       0.00000000       3.43737374       0.00000000       0.00000000      -1.27238274
2
Properties=species:S:1:pos:R:3:forces:R:3 energy=-6.223000334900779 pbc="F F F"
Os       0.00000000       0.00000000       0.00000000       0.00000000       0.00000000       1.03711677
Os       0.00000000       0.00000000       3.49696970       0.00000000       0.00000000      -1.03711677
2
Properties=species:S:1:pos:R:3:forces:R:3 energy=-6.167945041065125 pbc="F F F"
Os       0.00000000       0.00000000       0.00000000       0.00000000       0.00000000       0.81385279
Os       0.00000000       0.00000000       3.55656566       0.00000000       0.00000000      -0.81385279
2
Properties=species:S:1:pos:R:3:forces:R:3 energy=-6.125475349866969 pbc="F F F"
Os       0.00000000       0.00000000       0.00000000       0.00000000       0.00000000       0.61656886
Os       0.00000000       0.00000000       3.61616162       0.00000000       0.00000000      -0.61656886
2
Properties=species:S:1:pos:R:3:forces:R:3 energy=-6.093785278071263 pbc="F F F"
Os       0.00000000       0.00000000       0.00000000       0.00000000       0.00000000       0.45282948
Os       0.00000000       0.00000000       3.67575758       0.00000000       0.00000000      -0.45282948
2
Properties=species:S:1:pos:R:3:forces:R:3 energy=-6.070795334319127 pbc="F F F"
Os       0.00000000       0.00000000       0.00000000       0.00000000       0.00000000       0.32453775
Os       0.00000000       0.00000000       3.73535354       0.00000000       0.00000000      -0.32453775
2
Properties=species:S:1:pos:R:3:forces:R:3 energy=-6.05443678693404 pbc="F F F"
Os       0.00000000       0.00000000       0.00000000       0.00000000       0.00000000       0.22970645
Os       0.00000000       0.00000000       3.79494949       0.00000000       0.00000000      -0.22970645
2
Properties=species:S:1:pos:R:3:forces:R:3 energy=-6.042831409355733 pbc="F F F"
Os       0.00000000       0.00000000       0.00000000       0.00000000       0.00000000       0.16427715
Os       0.00000000       0.00000000       3.85454545       0.00000000       0.00000000      -0.16427715
2
Properties=species:S:1:pos:R:3:forces:R:3 energy=-6.034366943956249 pbc="F F F"
Os       0.00000000       0.00000000       0.00000000       0.00000000       0.00000000       0.12348737
Os       0.00000000       0.00000000       3.91414141       0.00000000       0.00000000      -0.12348737
2
Properties=species:S:1:pos:R:3:forces:R:3 energy=-6.027717113361474 pbc="F F F"
Os       0.00000000       0.00000000       0.00000000       0.00000000       0.00000000       0.10261954
Os       0.00000000       0.00000000       3.97373737       0.00000000       0.00000000      -0.10261954
2
Properties=species:S:1:pos:R:3:forces:R:3 energy=-6.021826920862609 pbc="F F F"
Os       0.00000000       0.00000000       0.00000000       0.00000000       0.00000000       0.09729790
Os       0.00000000       0.00000000       4.03333333       0.00000000       0.00000000      -0.09729790
2
Properties=species:S:1:pos:R:3:forces:R:3 energy=-6.015890251741025 pbc="F F F"
Os       0.00000000       0.00000000       0.00000000       0.00000000       0.00000000       0.10354237
Os       0.00000000       0.00000000       4.09292929       0.00000000       0.00000000      -0.10354237
2
Properties=species:S:1:pos:R:3:forces:R:3 energy=-6.0093270167628905 pbc="F F F"
Os       0.00000000       0.00000000       0.00000000       0.00000000       0.00000000       0.11776626
Os       0.00000000       0.00000000       4.15252525       0.00000000       0.00000000      -0.11776626
2
Properties=species:S:1:pos:R:3:forces:R:3 energy=-6.001758877833609 pbc="F F F"
Os       0.00000000       0.00000000       0.00000000       0.00000000       0.00000000       0.13678066
Os       0.00000000       0.00000000       4.21212121       0.00000000       0.00000000      -0.13678066
2
Properties=species:S:1:pos:R:3:forces:R:3 energy=-5.992984414451734 pbc="F F F"
Os       0.00000000       0.00000000       0.00000000       0.00000000       0.00000000       0.15780221
Os       0.00000000       0.00000000       4.27171717       0.00000000       0.00000000      -0.15780221
2
Properties=species:S:1:pos:R:3:forces:R:3 energy=-5.9829581555452895 pbc="F F F"
Os       0.00000000       0.00000000       0.00000000       0.00000000       0.00000000       0.17844075
Os       0.00000000       0.00000000       4.33131313       0.00000000       0.00000000      -0.17844075
2
Properties=species:S:1:pos:R:3:forces:R:3 energy=-5.971763898765669 pbc="F F F"
Os       0.00000000       0.00000000       0.00000000       0.00000000       0.00000000       0.19668345
Os       0.00000000       0.00000000       4.39090909       0.00000000       0.00000000      -0.19668345
2
Properties=species:S:1:pos:R:3:forces:R:3 energy=-5.959595087304243 pbc="F F F"
Os       0.00000000       0.00000000       0.00000000       0.00000000       0.00000000       0.21089737
Os       0.00000000       0.00000000       4.45050505       0.00000000       0.00000000      -0.21089737
2
Properties=species:S:1:pos:R:3:forces:R:3 energy=-5.946730945859685 pbc="F F F"
Os       0.00000000       0.00000000       0.00000000       0.00000000       0.00000000       0.21987467
Os       0.00000000       0.00000000       4.51010101       0.00000000       0.00000000      -0.21987467
2
Properties=species:S:1:pos:R:3:forces:R:3 energy=-5.9335058553539035 pbc="F F F"
Os       0.00000000       0.00000000       0.00000000       0.00000000       0.00000000       0.22290926
Os       0.00000000       0.00000000       4.56969697       0.00000000       0.00000000      -0.22290926
2
Properties=species:S:1:pos:R:3:forces:R:3 energy=-5.920282681729396 pbc="F F F"
Os       0.00000000       0.00000000       0.00000000       0.00000000       0.00000000       0.21987531
Os       0.00000000       0.00000000       4.62929293       0.00000000       0.00000000      -0.21987531
2
Properties=species:S:1:pos:R:3:forces:R:3 energy=-5.9074101505406675 pbc="F F F"
Os       0.00000000       0.00000000       0.00000000       0.00000000       0.00000000       0.21126652
Os       0.00000000       0.00000000       4.68888889       0.00000000       0.00000000      -0.21126652
2
Properties=species:S:1:pos:R:3:forces:R:3 energy=-5.895190911535917 pbc="F F F"
Os       0.00000000       0.00000000       0.00000000       0.00000000       0.00000000       0.19816385
Os       0.00000000       0.00000000       4.74848485       0.00000000       0.00000000      -0.19816385
2
Properties=species:S:1:pos:R:3:forces:R:3 energy=-5.883849378323355 pbc="F F F"
Os       0.00000000       0.00000000       0.00000000       0.00000000       0.00000000       0.18212086
Os       0.00000000       0.00000000       4.80808081       0.00000000       0.00000000      -0.18212086
2
Properties=species:S:1:pos:R:3:forces:R:3 energy=-5.87350557201959 pbc="F F F"
Os       0.00000000       0.00000000       0.00000000       0.00000000       0.00000000       0.16496050
Os       0.00000000       0.00000000       4.86767677       0.00000000       0.00000000      -0.16496050
2
Properties=species:S:1:pos:R:3:forces:R:3 energy=-5.864172543826681 pbc="F F F"
Os       0.00000000       0.00000000       0.00000000       0.00000000       0.00000000       0.14850256
Os       0.00000000       0.00000000       4.92727273       0.00000000       0.00000000      -0.14850256
2
Properties=species:S:1:pos:R:3:forces:R:3 energy=-5.855760615881419 pbc="F F F"
Os       0.00000000       0.00000000       0.00000000       0.00000000       0.00000000       0.13427287
Os       0.00000000       0.00000000       4.98686869       0.00000000       0.00000000      -0.13427287
2
Properties=species:S:1:pos:R:3:forces:R:3 energy=-5.848105002964444 pbc="F F F"
Os       0.00000000       0.00000000       0.00000000       0.00000000       0.00000000       0.12324618
Os       0.00000000       0.00000000       5.04646465       0.00000000       0.00000000      -0.12324618
2
Properties=species:S:1:pos:R:3:forces:R:3 energy=-5.84100191590793 pbc="F F F"
Os       0.00000000       0.00000000       0.00000000       0.00000000       0.00000000       0.11569427
Os       0.00000000       0.00000000       5.10606061       0.00000000       0.00000000      -0.11569427
2
Properties=species:S:1:pos:R:3:forces:R:3 energy=-5.834253428637957 pbc="F F F"
Os       0.00000000       0.00000000       0.00000000       0.00000000       0.00000000       0.11118984
Os       0.00000000       0.00000000       5.16565657       0.00000000       0.00000000      -0.11118984
2
Properties=species:S:1:pos:R:3:forces:R:3 energy=-5.827707462803715 pbc="F F F"
Os       0.00000000       0.00000000       0.00000000       0.00000000       0.00000000       0.10874244
Os       0.00000000       0.00000000       5.22525253       0.00000000       0.00000000      -0.10874244
2
Properties=species:S:1:pos:R:3:forces:R:3 energy=-5.8212777563334415 pbc="F F F"
Os       0.00000000       0.00000000       0.00000000       0.00000000       0.00000000       0.10705259
Os       0.00000000       0.00000000       5.28484848       0.00000000       0.00000000      -0.10705259
2
Properties=species:S:1:pos:R:3:forces:R:3 energy=-5.814958705574945 pbc="F F F"
Os       0.00000000       0.00000000       0.00000000       0.00000000       0.00000000       0.10480401
Os       0.00000000       0.00000000       5.34444444       0.00000000       0.00000000      -0.10480401
2
Properties=species:S:1:pos:R:3:forces:R:3 energy=-5.808818150965696 pbc="F F F"
Os       0.00000000       0.00000000       0.00000000       0.00000000       0.00000000       0.10091817
Os       0.00000000       0.00000000       5.40404040       0.00000000       0.00000000      -0.10091817
2
Properties=species:S:1:pos:R:3:forces:R:3 energy=-5.802974549037864 pbc="F F F"
Os       0.00000000       0.00000000       0.00000000       0.00000000       0.00000000       0.09474882
Os       0.00000000       0.00000000       5.46363636       0.00000000       0.00000000      -0.09474882
2
Properties=species:S:1:pos:R:3:forces:R:3 energy=-5.797575023653828 pbc="F F F"
Os       0.00000000       0.00000000       0.00000000       0.00000000       0.00000000       0.08613998
Os       0.00000000       0.00000000       5.52323232       0.00000000       0.00000000      -0.08613998
2
Properties=species:S:1:pos:R:3:forces:R:3 energy=-5.7927510803390945 pbc="F F F"
Os       0.00000000       0.00000000       0.00000000       0.00000000       0.00000000       0.07542114
Os       0.00000000       0.00000000       5.58282828       0.00000000       0.00000000      -0.07542114
2
Properties=species:S:1:pos:R:3:forces:R:3 energy=-5.7886138078164 pbc="F F F"
Os       0.00000000       0.00000000       0.00000000       0.00000000       0.00000000       0.06327499
Os       0.00000000       0.00000000       5.64242424       0.00000000       0.00000000      -0.06327499
2
Properties=species:S:1:pos:R:3:forces:R:3 energy=-5.785217744503731 pbc="F F F"
Os       0.00000000       0.00000000       0.00000000       0.00000000       0.00000000       0.05062977
Os       0.00000000       0.00000000       5.70202020       0.00000000       0.00000000      -0.05062977
2
Properties=species:S:1:pos:R:3:forces:R:3 energy=-5.782569927332952 pbc="F F F"
Os       0.00000000       0.00000000       0.00000000       0.00000000       0.00000000       0.03847032
Os       0.00000000       0.00000000       5.76161616       0.00000000       0.00000000      -0.03847032
2
Properties=species:S:1:pos:R:3:forces:R:3 energy=-5.780605127895802 pbc="F F F"
Os       0.00000000       0.00000000       0.00000000       0.00000000       0.00000000       0.02774942
Os       0.00000000       0.00000000       5.82121212       0.00000000       0.00000000      -0.02774942
2
Properties=species:S:1:pos:R:3:forces:R:3 energy=-5.779219305488785 pbc="F F F"
Os       0.00000000       0.00000000       0.00000000       0.00000000       0.00000000       0.01926574
Os       0.00000000       0.00000000       5.88080808       0.00000000       0.00000000      -0.01926574
2
Properties=species:S:1:pos:R:3:forces:R:3 energy=-5.778251469878141 pbc="F F F"
Os       0.00000000       0.00000000       0.00000000       0.00000000       0.00000000       0.01363049
Os       0.00000000       0.00000000       5.94040404       0.00000000       0.00000000      -0.01363049
2
Properties=species:S:1:pos:R:3:forces:R:3 energy=-5.77752714792506 pbc="F F F"
Os       0.00000000       0.00000000       0.00000000       0.00000000       0.00000000       0.01128462
Os       0.00000000       0.00000000       6.00000000       0.00000000       0.00000000      -0.01128462
