2
Properties=species:S:1:pos:R:3:forces:R:3 energy=16394.352135367524 pbc="F F F"
Os       0.00000000       0.00000000       0.00000000       0.00000000       0.00000000 -284075.87500000
Os       0.00000000       0.00000000       0.18000000       0.00000000       0.00000000  284075.87500000
2
Properties=species:S:1:pos:R:3:forces:R:3 energy=6483.584068961275 pbc="F F F"
Os       0.00000000       0.00000000       0.00000000       0.00000000       0.00000000  -93546.89062500
Os       0.00000000       0.00000000       0.23878788       0.00000000       0.00000000   93546.89062500
2
Properties=species:S:1:pos:R:3:forces:R:3 energy=2967.422936155111 pbc="F F F"
Os       0.00000000       0.00000000       0.00000000       0.00000000       0.00000000  -36225.35937500
Os       0.00000000       0.00000000       0.29757576       0.00000000       0.00000000   36225.35937500
2
Properties=species:S:1:pos:R:3:forces:R:3 energy=1541.5688101785486 pbc="F F F"
Os       0.00000000       0.00000000       0.00000000       0.00000000       0.00000000  -15507.34472656
Os       0.00000000       0.00000000       0.35636364       0.00000000       0.00000000   15507.34472656
2
Properties=species:S:1:pos:R:3:forces:R:3 energy=911.1620108621424 pbc="F F F"
Os       0.00000000       0.00000000       0.00000000       0.00000000       0.00000000   -7124.05615234
Os       0.00000000       0.00000000       0.41515152       0.00000000       0.00000000    7124.05615234
2
Properties=species:S:1:pos:R:3:forces:R:3 energy=614.2734000286343 pbc="F F F"
Os       0.00000000       0.00000000       0.00000000       0.00000000       0.00000000   -3455.33032227
Os       0.00000000       0.00000000       0.47393939       0.00000000       0.00000000    3455.33032227
2
Properties=species:S:1:pos:R:3:forces:R:3 energy=467.30831215701625 pbc="F F F"
Os       0.00000000       0.00000000       0.00000000       0.00000000       0.00000000   -1753.88195801
Os       0.00000000       0.00000000       0.53272727       0.00000000       0.00000000    1753.88195801
2
Properties=species:S:1:pos:R:3:forces:R:3 energy=390.97646403782755 pbc="F F F"
Os       0.00000000       0.00000000       0.00000000       0.00000000       0.00000000    -943.24780273
Os       0.00000000       0.00000000       0.59151515       0.00000000       0.00000000     943.24780273
2
Properties=species:S:1:pos:R:3:forces:R:3 energy=347.73812179068517 pbc="F F F"
Os       0.00000000       0.00000000       0.00000000       0.00000000       0.00000000    -582.67907715
Os       0.00000000       0.00000000       0.65030303       0.00000000       0.00000000     582.67907715
2
Properties=species:S:1:pos:R:3:forces:R:3 energy=317.3636101479629 pbc="F F F"
Os       0.00000000       0.00000000       0.00000000       0.00000000       0.00000000    -485.22753906
Os       0.00000000       0.00000000       0.70909091       0.00000000       0.00000000     485.22753906
2
Properties=species:S:1:pos:R:3:forces:R:3 energy=287.45488831916947 pbc="F F F"
Os       0.00000000       0.00000000       0.00000000       0.00000000       0.00000000    -552.71197510
Os       0.00000000       0.00000000       0.76787879       0.00000000       0.00000000     552.71197510
2
Properties=species:S:1:pos:R:3:forces:R:3 energy=250.91228593216243 pbc="F F F"
Os       0.00000000       0.00000000       0.00000000       0.00000000       0.00000000    -694.37634277
Os       0.00000000       0.00000000       0.82666667       0.00000000       0.00000000     694.37634277
2
Properties=species:S:1:pos:R:3:forces:R:3 energy=206.41832862804307 pbc="F F F"
Os       0.00000000       0.00000000       0.00000000       0.00000000       0.00000000    -804.57934570
Os       0.00000000       0.00000000       0.88545455       0.00000000       0.00000000     804.57934570
2
Properties=species:S:1:pos:R:3:forces:R:3 energy=159.36885993801337 pbc="F F F"
Os       0.00000000       0.00000000       0.00000000       0.00000000       0.00000000    -765.48754883
Os       0.00000000       0.00000000       0.94424242       0.00000000       0.00000000     765.48754883
2
Properties=species:S:1:pos:R:3:forces:R:3 energy=118.19020282442763 pbc="F F F"
Os       0.00000000       0.00000000       0.00000000       0.00000000       0.00000000    -632.04785156
Os       0.00000000       0.00000000       1.00303030       0.00000000       0.00000000     632.04785156
2
Properties=species:S:1:pos:R:3:forces:R:3 energy=85.32667036194479 pbc="F F F"
Os       0.00000000       0.00000000       0.00000000       0.00000000       0.00000000    -485.69891357
Os       0.00000000       0.00000000       1.06181818       0.00000000       0.00000000     485.69891357
2
Properties=species:S:1:pos:R:3:forces:R:3 energy=60.71180294548832 pbc="F F F"
Os       0.00000000       0.00000000       0.00000000       0.00000000       0.00000000    -357.50213623
Os       0.00000000       0.00000000       1.12060606       0.00000000       0.00000000     357.50213623
2
Properties=species:S:1:pos:R:3:forces:R:3 energy=42.59099627347246 pbc="F F F"
Os       0.00000000       0.00000000       0.00000000       0.00000000       0.00000000    -263.77395630
Os       0.00000000       0.00000000       1.17939394       0.00000000       0.00000000     263.77395630
2
Properties=species:S:1:pos:R:3:forces:R:3 energy=29.297593918280864 pbc="F F F"
Os       0.00000000       0.00000000       0.00000000       0.00000000       0.00000000    -191.18363953
Os       0.00000000       0.00000000       1.23818182       0.00000000       0.00000000     191.18363953
2
Properties=species:S:1:pos:R:3:forces:R:3 energy=19.750611811830268 pbc="F F F"
Os       0.00000000       0.00000000       0.00000000       0.00000000       0.00000000    -137.64913940
Os       0.00000000       0.00000000       1.29696970       0.00000000       0.00000000     137.64913940
2
Properties=species:S:1:pos:R:3:forces:R:3 energy=12.58894126608029 pbc="F F F"
Os       0.00000000       0.00000000       0.00000000       0.00000000       0.00000000    -109.37841797
Os       0.00000000       0.00000000       1.35575758       0.00000000       0.00000000     109.37841797
2
Properties=species:S:1:pos:R:3:forces:R:3 energy=6.69195686431584 pbc="F F F"
Os       0.00000000       0.00000000       0.00000000       0.00000000       0.00000000     -91.94850922
Os       0.00000000       0.00000000       1.41454545       0.00000000       0.00000000      91.94850922
2
Properties=species:S:1:pos:R:3:forces:R:3 energy=1.7615754120518052 pbc="F F F"
Os       0.00000000       0.00000000       0.00000000       0.00000000       0.00000000     -75.38843536
Os       0.00000000       0.00000000       1.47333333       0.00000000       0.00000000      75.38843536
2
Properties=species:S:1:pos:R:3:forces:R:3 energy=-2.1144587533490724 pbc="F F F"
Os       0.00000000       0.00000000       0.00000000       0.00000000       0.00000000     -56.30499268
Os       0.00000000       0.00000000       1.53212121       0.00000000       0.00000000      56.30499268
2
Properties=species:S:1:pos:R:3:forces:R:3 energy=-4.902741123214924 pbc="F F F"
Os       0.00000000       0.00000000       0.00000000       0.00000000       0.00000000     -39.33249283
Os       0.00000000       0.00000000       1.59090909       0.00000000       0.00000000      39.33249283
2
Properties=species:S:1:pos:R:3:forces:R:3 energy=-6.835529432857375 pbc="F F F"
Os       0.00000000       0.00000000       0.00000000       0.00000000       0.00000000     -27.11755943
Os       0.00000000       0.00000000       1.64969697       0.00000000       0.00000000      27.11755943
2
Properties=species:S:1:pos:R:3:forces:R:3 energy=-8.15244849466149 pbc="F F F"
Os       0.00000000       0.00000000       0.00000000       0.00000000       0.00000000     -18.08764648
Os       0.00000000       0.00000000       1.70848485       0.00000000       0.00000000      18.08764648
2
Properties=species:S:1:pos:R:3:forces:R:3 energy=-9.005638338286943 pbc="F F F"
Os       0.00000000       0.00000000       0.00000000       0.00000000       0.00000000     -11.30219364
Os       0.00000000       0.00000000       1.76727273       0.00000000       0.00000000      11.30219364
2
Properties=species:S:1:pos:R:3:forces:R:3 energy=-9.523103966162148 pbc="F F F"
Os       0.00000000       0.00000000       0.00000000       0.00000000       0.00000000      -6.63227463
Os       0.00000000       0.00000000       1.82606061       0.00000000       0.00000000       6.63227463
2
Properties=species:S:1:pos:R:3:forces:R:3 energy=-9.818555892603268 pbc="F F F"
Os       0.00000000       0.00000000       0.00000000       0.00000000       0.00000000      -3.64492345
Os       0.00000000       0.00000000       1.88484848       0.00000000       0.00000000       3.64492345
2
Properties=species:S:1:pos:R:3:forces:R:3 energy=-9.97164927371585 pbc="F F F"
Os       0.00000000       0.00000000       0.00000000       0.00000000       0.00000000      -1.68404627
Os       0.00000000       0.00000000       1.94363636       0.00000000       0.00000000       1.68404627
2
Properties=species:S:1:pos:R:3:forces:R:3 energy=-10.026499248728273 pbc="F F F"
Os       0.00000000       0.00000000       0.00000000       0.00000000       0.00000000      -0.23973617
Os       0.00000000       0.00000000       2.00242424       0.00000000       0.00000000       0.23973617
2
Properties=species:S:1:pos:R:3:forces:R:3 energy=-10.004973737290609 pbc="F F F"
Os       0.00000000       0.00000000       0.00000000       0.00000000       0.00000000       0.93594438
Os       0.00000000       0.00000000       2.06121212       0.00000000       0.00000000      -0.93594438
2
Properties=species:S:1:pos:R:3:forces:R:3 energy=-9.920539510428986 pbc="F F F"
Os       0.00000000       0.00000000       0.00000000       0.00000000       0.00000000       1.90107489
Os       0.00000000       0.00000000       2.12000000       0.00000000       0.00000000      -1.90107489
2
Properties=species:S:1:pos:R:3:forces:R:3 energy=-9.78574953179336 pbc="F F F"
Os       0.00000000       0.00000000       0.00000000       0.00000000       0.00000000       2.64782000
Os       0.00000000       0.00000000       2.17878788       0.00000000       0.00000000      -2.64782000
2
Properties=species:S:1:pos:R:3:forces:R:3 energy=-9.61332499754828 pbc="F F F"
Os       0.00000000       0.00000000       0.00000000       0.00000000       0.00000000       3.18637896
Os       0.00000000       0.00000000       2.23757576       0.00000000       0.00000000      -3.18637896
2
Properties=species:S:1:pos:R:3:forces:R:3 energy=-9.414373134167727 pbc="F F F"
Os       0.00000000       0.00000000       0.00000000       0.00000000       0.00000000       3.55837893
Os       0.00000000       0.00000000       2.29636364       0.00000000       0.00000000      -3.55837893
2
Properties=species:S:1:pos:R:3:forces:R:3 energy=-9.197358636366726 pbc="F F F"
Os       0.00000000       0.00000000       0.00000000       0.00000000       0.00000000       3.80627251
Os       0.00000000       0.00000000       2.35515152       0.00000000       0.00000000      -3.80627251
2
Properties=species:S:1:pos:R:3:forces:R:3 energy=-8.96895620362364 pbc="F F F"
Os       0.00000000       0.00000000       0.00000000       0.00000000       0.00000000       3.94583344
Os       0.00000000       0.00000000       2.41393939       0.00000000       0.00000000      -3.94583344
2
Properties=species:S:1:pos:R:3:forces:R:3 energy=-8.735653183918277 pbc="F F F"
Os       0.00000000       0.00000000       0.00000000       0.00000000       0.00000000       3.97182941
Os       0.00000000       0.00000000       2.47272727       0.00000000       0.00000000      -3.97182941
2
Properties=species:S:1:pos:R:3:forces:R:3 energy=-8.504178092011351 pbc="F F F"
Os       0.00000000       0.00000000       0.00000000       0.00000000       0.00000000       3.88570857
Os       0.00000000       0.00000000       2.53151515       0.00000000       0.00000000      -3.88570857
2
Properties=species:S:1:pos:R:3:forces:R:3 energy=-8.280553888657531 pbc="F F F"
Os       0.00000000       0.00000000       0.00000000       0.00000000       0.00000000       3.70982742
Os       0.00000000       0.00000000       2.59030303       0.00000000       0.00000000      -3.70982742
2
Properties=species:S:1:pos:R:3:forces:R:3 energy=-8.069114418976852 pbc="F F F"
Os       0.00000000       0.00000000       0.00000000       0.00000000       0.00000000       3.47640133
Os       0.00000000       0.00000000       2.64909091       0.00000000       0.00000000      -3.47640133
2
Properties=species:S:1:pos:R:3:forces:R:3 energy=-7.872389380484161 pbc="F F F"
Os       0.00000000       0.00000000       0.00000000       0.00000000       0.00000000       3.21349454
Os       0.00000000       0.00000000       2.70787879       0.00000000       0.00000000      -3.21349454
2
Properties=species:S:1:pos:R:3:forces:R:3 energy=-7.691386624863279 pbc="F F F"
Os       0.00000000       0.00000000       0.00000000       0.00000000       0.00000000       2.94550443
Os       0.00000000       0.00000000       2.76666667       0.00000000       0.00000000      -2.94550443
2
Properties=species:S:1:pos:R:3:forces:R:3 energy=-7.525697377754936 pbc="F F F"
Os       0.00000000       0.00000000       0.00000000       0.00000000       0.00000000       2.69615769
Os       0.00000000       0.00000000       2.82545455       0.00000000       0.00000000      -2.69615769
2
Properties=species:S:1:pos:R:3:forces:R:3 energy=-7.3736834130146764 pbc="F F F"
Os       0.00000000       0.00000000       0.00000000       0.00000000       0.00000000       2.48229599
Os       0.00000000       0.00000000       2.88424242       0.00000000       0.00000000      -2.48229599
2
Properties=species:S:1:pos:R:3:forces:R:3 energy=-7.2329547315349965 pbc="F F F"
Os       0.00000000       0.00000000       0.00000000       0.00000000       0.00000000       2.31345773
Os       0.00000000       0.00000000       2.94303030       0.00000000       0.00000000      -2.31345773
2
Properties=species:S:1:pos:R:3:forces:R:3 energy=-7.100701557001395 pbc="F F F"
Os       0.00000000       0.00000000       0.00000000       0.00000000       0.00000000       2.19395280
Os       0.00000000       0.00000000       3.00181818       0.00000000       0.00000000      -2.19395280
2
Properties=species:S:1:pos:R:3:forces:R:3 energy=-6.974164498996661 pbc="F F F"
Os       0.00000000       0.00000000       0.00000000       0.00000000       0.00000000       2.11654925
Os       0.00000000       0.00000000       3.06060606       0.00000000       0.00000000      -2.11654925
2
Properties=species:S:1:pos:R:3:forces:R:3 energy=-6.851426975702643 pbc="F F F"
Os       0.00000000       0.00000000       0.00000000       0.00000000       0.00000000       2.06038761
Os       0.00000000       0.00000000       3.11939394       0.00000000       0.00000000      -2.06038761
2
Properties=species:S:1:pos:R:3:forces:R:3 energy=-6.732039733568877 pbc="F F F"
Os       0.00000000       0.00000000       0.00000000       0.00000000       0.00000000       1.99788332
Os       0.00000000       0.00000000       3.17818182       0.00000000       0.00000000      -1.99788332
2
Properties=species:S:1:pos:R:3:forces:R:3 energy=-6.617136110272806 pbc="F F F"
Os       0.00000000       0.00000000       0.00000000       0.00000000       0.00000000       1.90450263
Os       0.00000000       0.00000000       3.23696970       0.00000000       0.00000000      -1.90450263
2
Properties=species:S:1:pos:R:3:forces:R:3 energy=-6.509002876801599 pbc="F F F"
Os       0.00000000       0.00000000       0.00000000       0.00000000       0.00000000       1.76633883
Os       0.00000000       0.00000000       3.29575758       0.00000000       0.00000000      -1.76633883
2
Properties=species:S:1:pos:R:3:forces:R:3 energy=-6.410348208452432 pbc="F F F"
Os       0.00000000       0.00000000       0.00000000       0.00000000       0.00000000       1.58312380
Os       0.00000000       0.00000000       3.35454545       0.00000000       0.00000000      -1.58312380
2
Properties=species:S:1:pos:R:3:forces:R:3 energy=-6.323526223588642 pbc="F F F"
Os       0.00000000       0.00000000       0.00000000       0.00000000       0.00000000       1.36645293
Os       0.00000000       0.00000000       3.41333333       0.00000000       0.00000000      -1.36645293
2
Properties=species:S:1:pos:R:3:forces:R:3 energy=-6.249980956507362 pbc="F F F"
Os       0.00000000       0.00000000       0.00000000       0.00000000       0.00000000       1.13476169
Os       0.00000000       0.00000000       3.47212121       0.00000000       0.00000000      -1.13476169
2
Properties=species:S:1:pos:R:3:forces:R:3 energy=-6.190018142510078 pbc="F F F"
Os       0.00000000       0.00000000       0.00000000       0.00000000       0.00000000       0.90746099
Os       0.00000000       0.00000000       3.53090909       0.00000000       0.00000000      -0.90746099
2
Properties=species:S:1:pos:R:3:forces:R:3 energy=-6.142886454449733 pbc="F F F"
Os       0.00000000       0.00000000       0.00000000       0.00000000       0.00000000       0.70033777
Os       0.00000000       0.00000000       3.58969697       0.00000000       0.00000000      -0.70033777
2
Properties=species:S:1:pos:R:3:forces:R:3 energy=-6.1070798333281475 pbc="F F F"
Os       0.00000000       0.00000000       0.00000000       0.00000000       0.00000000       0.52336365
Os       0.00000000       0.00000000       3.64848485       0.00000000       0.00000000      -0.52336365
2
Properties=species:S:1:pos:R:3:forces:R:3 energy=-6.08067803872599 pbc="F F F"
Os       0.00000000       0.00000000       0.00000000       0.00000000       0.00000000       0.38062978
Os       0.00000000       0.00000000       3.70727273       0.00000000       0.00000000      -0.38062978
2
Properties=species:S:1:pos:R:3:forces:R:3 energy=-6.061662305498044 pbc="F F F"
Os       0.00000000       0.00000000       0.00000000       0.00000000       0.00000000       0.27172324
Os       0.00000000       0.00000000       3.76606061       0.00000000       0.00000000      -0.27172324
2
Properties=species:S:1:pos:R:3:forces:R:3 energy=-6.048128101844785 pbc="F F F"
Os       0.00000000       0.00000000       0.00000000       0.00000000       0.00000000       0.19349945
Os       0.00000000       0.00000000       3.82484848       0.00000000       0.00000000      -0.19349945
2
Properties=species:S:1:pos:R:3:forces:R:3 energy=-6.0383957777078425 pbc="F F F"
Os       0.00000000       0.00000000       0.00000000       0.00000000       0.00000000       0.14158620
Os       0.00000000       0.00000000       3.88363636       0.00000000       0.00000000      -0.14158620
2
Properties=species:S:1:pos:R:3:forces:R:3 energy=-6.031055450819308 pbc="F F F"
Os       0.00000000       0.00000000       0.00000000       0.00000000       0.00000000       0.11137703
Os       0.00000000       0.00000000       3.94242424       0.00000000       0.00000000      -0.11137703
2
Properties=species:S:1:pos:R:3:forces:R:3 energy=-6.024961783667756 pbc="F F F"
Os       0.00000000       0.00000000       0.00000000       0.00000000       0.00000000       0.09848449
Os       0.00000000       0.00000000       4.00121212       0.00000000       0.00000000      -0.09848449
2
Properties=species:S:1:pos:R:3:forces:R:3 energy=-6.019215847847117 pbc="F F F"
Os       0.00000000       0.00000000       0.00000000       0.00000000       0.00000000       0.09888500
Os       0.00000000       0.00000000       4.06000000       0.00000000       0.00000000      -0.09888500
2
Properties=species:S:1:pos:R:3:forces:R:3 energy=-6.013146208961459 pbc="F F F"
Os       0.00000000       0.00000000       0.00000000       0.00000000       0.00000000       0.10892997
Os       0.00000000       0.00000000       4.11878788       0.00000000       0.00000000      -0.10892997
2
Properties=species:S:1:pos:R:3:forces:R:3 energy=-6.006283559220937 pbc="F F F"
Os       0.00000000       0.00000000       0.00000000       0.00000000       0.00000000       0.12534484
Os       0.00000000       0.00000000       4.17757576       0.00000000       0.00000000      -0.12534484
2
Properties=species:S:1:pos:R:3:forces:R:3 energy=-5.998340785315816 pbc="F F F"
Os       0.00000000       0.00000000       0.00000000       0.00000000       0.00000000       0.14523393
Os       0.00000000       0.00000000       4.23636364       0.00000000       0.00000000      -0.14523393
2
Properties=species:S:1:pos:R:3:forces:R:3 energy=-5.989189050530823 pbc="F F F"
Os       0.00000000       0.00000000       0.00000000       0.00000000       0.00000000       0.16608363
Os       0.00000000       0.00000000       4.29515152       0.00000000       0.00000000      -0.16608363
2
Properties=species:S:1:pos:R:3:forces:R:3 energy=-5.978837347768151 pbc="F F F"
Os       0.00000000       0.00000000       0.00000000       0.00000000       0.00000000       0.18574543
Os       0.00000000       0.00000000       4.35393939       0.00000000       0.00000000      -0.18574543
2
Properties=species:S:1:pos:R:3:forces:R:3 energy=-5.967408600668743 pbc="F F F"
Os       0.00000000       0.00000000       0.00000000       0.00000000       0.00000000       0.20242797
Os       0.00000000       0.00000000       4.41272727       0.00000000       0.00000000      -0.20242797
2
Properties=species:S:1:pos:R:3:forces:R:3 energy=-5.9551229806474035 pbc="F F F"
Os       0.00000000       0.00000000       0.00000000       0.00000000       0.00000000       0.21470807
Os       0.00000000       0.00000000       4.47151515       0.00000000       0.00000000      -0.21470807
2
Properties=species:S:1:pos:R:3:forces:R:3 energy=-5.942270155302958 pbc="F F F"
Os       0.00000000       0.00000000       0.00000000       0.00000000       0.00000000       0.22158851
Os       0.00000000       0.00000000       4.53030303       0.00000000       0.00000000      -0.22158851
2
Properties=species:S:1:pos:R:3:forces:R:3 energy=-5.9291853958751854 pbc="F F F"
Os       0.00000000       0.00000000       0.00000000       0.00000000       0.00000000       0.22257605
Os       0.00000000       0.00000000       4.58909091       0.00000000       0.00000000      -0.22257605
2
Properties=species:S:1:pos:R:3:forces:R:3 energy=-5.916215248137254 pbc="F F F"
Os       0.00000000       0.00000000       0.00000000       0.00000000       0.00000000       0.21774910
Os       0.00000000       0.00000000       4.64787879       0.00000000       0.00000000      -0.21774910
2
Properties=species:S:1:pos:R:3:forces:R:3 energy=-5.903684431059005 pbc="F F F"
Os       0.00000000       0.00000000       0.00000000       0.00000000       0.00000000       0.20776553
Os       0.00000000       0.00000000       4.70666667       0.00000000       0.00000000      -0.20776553
2
Properties=species:S:1:pos:R:3:forces:R:3 energy=-5.891864877237718 pbc="F F F"
Os       0.00000000       0.00000000       0.00000000       0.00000000       0.00000000       0.19381881
Os       0.00000000       0.00000000       4.76545455       0.00000000       0.00000000      -0.19381881
2
Properties=species:S:1:pos:R:3:forces:R:3 energy=-5.88094268224655 pbc="F F F"
Os       0.00000000       0.00000000       0.00000000       0.00000000       0.00000000       0.17749842
Os       0.00000000       0.00000000       4.82424242       0.00000000       0.00000000      -0.17749842
2
Properties=species:S:1:pos:R:3:forces:R:3 energy=-5.871007127876434 pbc="F F F"
Os       0.00000000       0.00000000       0.00000000       0.00000000       0.00000000       0.16058597
Os       0.00000000       0.00000000       4.88303030       0.00000000       0.00000000      -0.16058597
2
Properties=species:S:1:pos:R:3:forces:R:3 energy=-5.8620399921457995 pbc="F F F"
Os       0.00000000       0.00000000       0.00000000       0.00000000       0.00000000       0.14477587
Os       0.00000000       0.00000000       4.94181818       0.00000000       0.00000000      -0.14477587
2
Properties=species:S:1:pos:R:3:forces:R:3 energy=-5.853936103983533 pbc="F F F"
Os       0.00000000       0.00000000       0.00000000       0.00000000       0.00000000       0.13142560
Os       0.00000000       0.00000000       5.00060606       0.00000000       0.00000000      -0.13142560
2
Properties=species:S:1:pos:R:3:forces:R:3 energy=-5.846523272187132 pbc="F F F"
Os       0.00000000       0.00000000       0.00000000       0.00000000       0.00000000       0.12131674
Os       0.00000000       0.00000000       5.05939394       0.00000000       0.00000000      -0.12131674
2
Properties=species:S:1:pos:R:3:forces:R:3 energy=-5.839606060990511 pbc="F F F"
Os       0.00000000       0.00000000       0.00000000       0.00000000       0.00000000       0.11455582
Os       0.00000000       0.00000000       5.11818182       0.00000000       0.00000000      -0.11455582
2
Properties=species:S:1:pos:R:3:forces:R:3 energy=-5.832999170248983 pbc="F F F"
Os       0.00000000       0.00000000       0.00000000       0.00000000       0.00000000       0.11060280
Os       0.00000000       0.00000000       5.17696970       0.00000000       0.00000000      -0.11060280
2
Properties=species:S:1:pos:R:3:forces:R:3 energy=-5.826567003419925 pbc="F F F"
Os       0.00000000       0.00000000       0.00000000       0.00000000       0.00000000       0.10842693
Os       0.00000000       0.00000000       5.23575758       0.00000000       0.00000000      -0.10842693
2
Properties=species:S:1:pos:R:3:forces:R:3 energy=-5.820241220254702 pbc="F F F"
Os       0.00000000       0.00000000       0.00000000       0.00000000       0.00000000       0.10675649
Os       0.00000000       0.00000000       5.29454545       0.00000000       0.00000000      -0.10675649
2
Properties=species:S:1:pos:R:3:forces:R:3 energy=-5.814029395895243 pbc="F F F"
Os       0.00000000       0.00000000       0.00000000       0.00000000       0.00000000       0.10434838
Os       0.00000000       0.00000000       5.35333333       0.00000000       0.00000000      -0.10434838
2
Properties=species:S:1:pos:R:3:forces:R:3 energy=-5.808006395039599 pbc="F F F"
Os       0.00000000       0.00000000       0.00000000       0.00000000       0.00000000       0.10022257
Os       0.00000000       0.00000000       5.41212121       0.00000000       0.00000000      -0.10022257
2
Properties=species:S:1:pos:R:3:forces:R:3 energy=-5.80229053483576 pbc="F F F"
Os       0.00000000       0.00000000       0.00000000       0.00000000       0.00000000       0.09382597
Os       0.00000000       0.00000000       5.47090909       0.00000000       0.00000000      -0.09382597
2
Properties=species:S:1:pos:R:3:forces:R:3 energy=-5.797020737879754 pbc="F F F"
Os       0.00000000       0.00000000       0.00000000       0.00000000       0.00000000       0.08507466
Os       0.00000000       0.00000000       5.52969697       0.00000000       0.00000000      -0.08507466
2
Properties=species:S:1:pos:R:3:forces:R:3 energy=-5.792327475243305 pbc="F F F"
Os       0.00000000       0.00000000       0.00000000       0.00000000       0.00000000       0.07431505
Os       0.00000000       0.00000000       5.58848485       0.00000000       0.00000000      -0.07431505
2
Properties=species:S:1:pos:R:3:forces:R:3 energy=-5.788310838300203 pbc="F F F"
Os       0.00000000       0.00000000       0.00000000       0.00000000       0.00000000       0.06225455
Os       0.00000000       0.00000000       5.64727273       0.00000000       0.00000000      -0.06225455
2
Properties=species:S:1:pos:R:3:forces:R:3 energy=-5.785017203799854 pbc="F F F"
Os       0.00000000       0.00000000       0.00000000       0.00000000       0.00000000       0.04977646
Os       0.00000000       0.00000000       5.70606061       0.00000000       0.00000000      -0.04977646
2
Properties=species:S:1:pos:R:3:forces:R:3 energy=-5.782443580838604 pbc="F F F"
Os       0.00000000       0.00000000       0.00000000       0.00000000       0.00000000       0.03784152
Os       0.00000000       0.00000000       5.76484848       0.00000000       0.00000000      -0.03784152
2
Properties=species:S:1:pos:R:3:forces:R:3 energy=-5.78053668727972 pbc="F F F"
Os       0.00000000       0.00000000       0.00000000       0.00000000       0.00000000       0.02735605
Os       0.00000000       0.00000000       5.82363636       0.00000000       0.00000000      -0.02735605
2
Properties=species:S:1:pos:R:3:forces:R:3 energy=-5.779186746118611 pbc="F F F"
Os       0.00000000       0.00000000       0.00000000       0.00000000       0.00000000       0.01907028
Os       0.00000000       0.00000000       5.88242424       0.00000000       0.00000000      -0.01907028
2
Properties=species:S:1:pos:R:3:forces:R:3 energy=-5.778240920870538 pbc="F F F"
Os       0.00000000       0.00000000       0.00000000       0.00000000       0.00000000       0.01357281
Os       0.00000000       0.00000000       5.94121212       0.00000000       0.00000000      -0.01357281
2
Properties=species:S:1:pos:R:3:forces:R:3 energy=-5.77752714792506 pbc="F F F"
Os       0.00000000       0.00000000       0.00000000       0.00000000       0.00000000       0.01128462
Os       0.00000000       0.00000000       6.00000000       0.00000000       0.00000000      -0.01128462
