2
Properties=species:S:1:pos:R:3:forces:R:3 energy=1680.4952112586484 pbc="F F F"
P        0.00000000       0.00000000       0.00000000       0.00000000       0.00000000  -22993.16796875
P        0.00000000       0.00000000       0.18000000       0.00000000       0.00000000   22993.16796875
2
Properties=species:S:1:pos:R:3:forces:R:3 energy=824.7345301063046 pbc="F F F"
P        0.00000000       0.00000000       0.00000000       0.00000000       0.00000000   -8818.58203125
P        0.00000000       0.00000000       0.23878788       0.00000000       0.00000000    8818.58203125
2
Properties=species:S:1:pos:R:3:forces:R:3 energy=471.38373054575777 pbc="F F F"
P        0.00000000       0.00000000       0.00000000       0.00000000       0.00000000   -3974.44384766
P        0.00000000       0.00000000       0.29757576       0.00000000       0.00000000    3974.44384766
2
Properties=species:S:1:pos:R:3:forces:R:3 energy=303.09320321151125 pbc="F F F"
P        0.00000000       0.00000000       0.00000000       0.00000000       0.00000000   -2021.73498535
P        0.00000000       0.00000000       0.35636364       0.00000000       0.00000000    2021.73498535
2
Properties=species:S:1:pos:R:3:forces:R:3 energy=213.19612375957692 pbc="F F F"
P        0.00000000       0.00000000       0.00000000       0.00000000       0.00000000   -1148.78503418
P        0.00000000       0.00000000       0.41515152       0.00000000       0.00000000    1148.78503418
2
Properties=species:S:1:pos:R:3:forces:R:3 energy=158.27173109739547 pbc="F F F"
P        0.00000000       0.00000000       0.00000000       0.00000000       0.00000000    -781.84051514
P        0.00000000       0.00000000       0.47393939       0.00000000       0.00000000     781.84051514
2
Properties=species:S:1:pos:R:3:forces:R:3 energy=116.86360433286505 pbc="F F F"
P        0.00000000       0.00000000       0.00000000       0.00000000       0.00000000    -642.57092285
P        0.00000000       0.00000000       0.53272727       0.00000000       0.00000000     642.57092285
2
Properties=species:S:1:pos:R:3:forces:R:3 energy=82.12900056823854 pbc="F F F"
P        0.00000000       0.00000000       0.00000000       0.00000000       0.00000000    -537.43493652
P        0.00000000       0.00000000       0.59151515       0.00000000       0.00000000     537.43493652
2
Properties=species:S:1:pos:R:3:forces:R:3 energy=54.98606023706763 pbc="F F F"
P        0.00000000       0.00000000       0.00000000       0.00000000       0.00000000    -375.66900635
P        0.00000000       0.00000000       0.65030303       0.00000000       0.00000000     375.66900635
2
Properties=species:S:1:pos:R:3:forces:R:3 energy=36.56449834635434 pbc="F F F"
P        0.00000000       0.00000000       0.00000000       0.00000000       0.00000000    -220.86547852
P        0.00000000       0.00000000       0.70909091       0.00000000       0.00000000     220.86547852
2
Properties=species:S:1:pos:R:3:forces:R:3 energy=28.56153478591316 pbc="F F F"
P        0.00000000       0.00000000       0.00000000       0.00000000       0.00000000     -75.55868530
P        0.00000000       0.00000000       0.76787879       0.00000000       0.00000000      75.55868530
2
Properties=species:S:1:pos:R:3:forces:R:3 energy=25.059536565627734 pbc="F F F"
P        0.00000000       0.00000000       0.00000000       0.00000000       0.00000000     -51.86713028
P        0.00000000       0.00000000       0.82666667       0.00000000       0.00000000      51.86713028
2
Properties=species:S:1:pos:R:3:forces:R:3 energy=21.90095676128766 pbc="F F F"
P        0.00000000       0.00000000       0.00000000       0.00000000       0.00000000     -63.62764359
P        0.00000000       0.00000000       0.88545455       0.00000000       0.00000000      63.62764359
2
Properties=species:S:1:pos:R:3:forces:R:3 energy=17.758374276405284 pbc="F F F"
P        0.00000000       0.00000000       0.00000000       0.00000000       0.00000000     -72.01315308
P        0.00000000       0.00000000       0.94424242       0.00000000       0.00000000      72.01315308
2
Properties=species:S:1:pos:R:3:forces:R:3 energy=13.836649924949356 pbc="F F F"
P        0.00000000       0.00000000       0.00000000       0.00000000       0.00000000     -60.05730820
P        0.00000000       0.00000000       1.00303030       0.00000000       0.00000000      60.05730820
2
Properties=species:S:1:pos:R:3:forces:R:3 energy=10.632077867910493 pbc="F F F"
P        0.00000000       0.00000000       0.00000000       0.00000000       0.00000000     -51.16314316
P        0.00000000       0.00000000       1.06181818       0.00000000       0.00000000      51.16314316
2
Properties=species:S:1:pos:R:3:forces:R:3 energy=7.608424857546353 pbc="F F F"
P        0.00000000       0.00000000       0.00000000       0.00000000       0.00000000     -51.51588440
P        0.00000000       0.00000000       1.12060606       0.00000000       0.00000000      51.51588440
2
Properties=species:S:1:pos:R:3:forces:R:3 energy=4.734657587003026 pbc="F F F"
P        0.00000000       0.00000000       0.00000000       0.00000000       0.00000000     -45.24056244
P        0.00000000       0.00000000       1.17939394       0.00000000       0.00000000      45.24056244
2
Properties=species:S:1:pos:R:3:forces:R:3 energy=2.305472157557649 pbc="F F F"
P        0.00000000       0.00000000       0.00000000       0.00000000       0.00000000     -37.75217438
P        0.00000000       0.00000000       1.23818182       0.00000000       0.00000000      37.75217438
2
Properties=species:S:1:pos:R:3:forces:R:3 energy=0.2518037666557191 pbc="F F F"
P        0.00000000       0.00000000       0.00000000       0.00000000       0.00000000     -32.39121246
P        0.00000000       0.00000000       1.29696970       0.00000000       0.00000000      32.39121246
2
Properties=species:S:1:pos:R:3:forces:R:3 energy=-1.5224859656576344 pbc="F F F"
P        0.00000000       0.00000000       0.00000000       0.00000000       0.00000000     -28.07690239
P        0.00000000       0.00000000       1.35575758       0.00000000       0.00000000      28.07690239
2
Properties=species:S:1:pos:R:3:forces:R:3 energy=-3.0624741930655075 pbc="F F F"
P        0.00000000       0.00000000       0.00000000       0.00000000       0.00000000     -24.43991470
P        0.00000000       0.00000000       1.41454545       0.00000000       0.00000000      24.43991470
2
Properties=species:S:1:pos:R:3:forces:R:3 energy=-4.408643711553489 pbc="F F F"
P        0.00000000       0.00000000       0.00000000       0.00000000       0.00000000     -21.42527580
P        0.00000000       0.00000000       1.47333333       0.00000000       0.00000000      21.42527580
2
Properties=species:S:1:pos:R:3:forces:R:3 energy=-5.584759788143057 pbc="F F F"
P        0.00000000       0.00000000       0.00000000       0.00000000       0.00000000     -18.58852196
P        0.00000000       0.00000000       1.53212121       0.00000000       0.00000000      18.58852196
2
Properties=species:S:1:pos:R:3:forces:R:3 energy=-6.593810162586285 pbc="F F F"
P        0.00000000       0.00000000       0.00000000       0.00000000       0.00000000     -15.73570728
P        0.00000000       0.00000000       1.59090909       0.00000000       0.00000000      15.73570728
2
Properties=species:S:1:pos:R:3:forces:R:3 energy=-7.43355541918276 pbc="F F F"
P        0.00000000       0.00000000       0.00000000       0.00000000       0.00000000     -12.80910969
P        0.00000000       0.00000000       1.64969697       0.00000000       0.00000000      12.80910969
2
Properties=species:S:1:pos:R:3:forces:R:3 energy=-8.095499924674842 pbc="F F F"
P        0.00000000       0.00000000       0.00000000       0.00000000       0.00000000      -9.66698265
P        0.00000000       0.00000000       1.70848485       0.00000000       0.00000000       9.66698265
2
Properties=species:S:1:pos:R:3:forces:R:3 energy=-8.56627803821608 pbc="F F F"
P        0.00000000       0.00000000       0.00000000       0.00000000       0.00000000      -6.33875513
P        0.00000000       0.00000000       1.76727273       0.00000000       0.00000000       6.33875513
2
Properties=species:S:1:pos:R:3:forces:R:3 energy=-8.84341878030905 pbc="F F F"
P        0.00000000       0.00000000       0.00000000       0.00000000       0.00000000      -3.14564490
P        0.00000000       0.00000000       1.82606061       0.00000000       0.00000000       3.14564490
2
Properties=species:S:1:pos:R:3:forces:R:3 energy=-8.945774255119609 pbc="F F F"
P        0.00000000       0.00000000       0.00000000       0.00000000       0.00000000      -0.43650380
P        0.00000000       0.00000000       1.88484848       0.00000000       0.00000000       0.43650380
2
Properties=species:S:1:pos:R:3:forces:R:3 energy=-8.907199714138526 pbc="F F F"
P        0.00000000       0.00000000       0.00000000       0.00000000       0.00000000       1.64331126
P        0.00000000       0.00000000       1.94363636       0.00000000       0.00000000      -1.64331126
2
Properties=species:S:1:pos:R:3:forces:R:3 energy=-8.764108042995923 pbc="F F F"
P        0.00000000       0.00000000       0.00000000       0.00000000       0.00000000       3.13633227
P        0.00000000       0.00000000       2.00242424       0.00000000       0.00000000      -3.13633227
2
Properties=species:S:1:pos:R:3:forces:R:3 energy=-8.547506517562852 pbc="F F F"
P        0.00000000       0.00000000       0.00000000       0.00000000       0.00000000       4.16658592
P        0.00000000       0.00000000       2.06121212       0.00000000       0.00000000      -4.16658592
2
Properties=species:S:1:pos:R:3:forces:R:3 energy=-8.280891319143855 pbc="F F F"
P        0.00000000       0.00000000       0.00000000       0.00000000       0.00000000       4.85450029
P        0.00000000       0.00000000       2.12000000       0.00000000       0.00000000      -4.85450029
2
Properties=species:S:1:pos:R:3:forces:R:3 energy=-7.982052599203445 pbc="F F F"
P        0.00000000       0.00000000       0.00000000       0.00000000       0.00000000       5.26931047
P        0.00000000       0.00000000       2.17878788       0.00000000       0.00000000      -5.26931047
2
Properties=species:S:1:pos:R:3:forces:R:3 energy=-7.66629763079466 pbc="F F F"
P        0.00000000       0.00000000       0.00000000       0.00000000       0.00000000       5.43137980
P        0.00000000       0.00000000       2.23757576       0.00000000       0.00000000      -5.43137980
2
Properties=species:S:1:pos:R:3:forces:R:3 energy=-7.348137375251983 pbc="F F F"
P        0.00000000       0.00000000       0.00000000       0.00000000       0.00000000       5.35583115
P        0.00000000       0.00000000       2.29636364       0.00000000       0.00000000      -5.35583115
2
Properties=species:S:1:pos:R:3:forces:R:3 energy=-7.040294196736408 pbc="F F F"
P        0.00000000       0.00000000       0.00000000       0.00000000       0.00000000       5.09210491
P        0.00000000       0.00000000       2.35515152       0.00000000       0.00000000      -5.09210491
2
Properties=species:S:1:pos:R:3:forces:R:3 energy=-6.751524276814639 pbc="F F F"
P        0.00000000       0.00000000       0.00000000       0.00000000       0.00000000       4.72139692
P        0.00000000       0.00000000       2.41393939       0.00000000       0.00000000      -4.72139692
2
Properties=species:S:1:pos:R:3:forces:R:3 energy=-6.4856694862945234 pbc="F F F"
P        0.00000000       0.00000000       0.00000000       0.00000000       0.00000000       4.32416058
P        0.00000000       0.00000000       2.47272727       0.00000000       0.00000000      -4.32416058
2
Properties=species:S:1:pos:R:3:forces:R:3 energy=-6.242598915201119 pbc="F F F"
P        0.00000000       0.00000000       0.00000000       0.00000000       0.00000000       3.95167398
P        0.00000000       0.00000000       2.53151515       0.00000000       0.00000000      -3.95167398
2
Properties=species:S:1:pos:R:3:forces:R:3 energy=-6.0202460571730425 pbc="F F F"
P        0.00000000       0.00000000       0.00000000       0.00000000       0.00000000       3.61932111
P        0.00000000       0.00000000       2.59030303       0.00000000       0.00000000      -3.61932111
2
Properties=species:S:1:pos:R:3:forces:R:3 energy=-5.81645531435249 pbc="F F F"
P        0.00000000       0.00000000       0.00000000       0.00000000       0.00000000       3.31734228
P        0.00000000       0.00000000       2.64909091       0.00000000       0.00000000      -3.31734228
2
Properties=species:S:1:pos:R:3:forces:R:3 energy=-5.62995606901794 pbc="F F F"
P        0.00000000       0.00000000       0.00000000       0.00000000       0.00000000       3.02829742
P        0.00000000       0.00000000       2.70787879       0.00000000       0.00000000      -3.02829742
2
Properties=species:S:1:pos:R:3:forces:R:3 energy=-5.460362857334811 pbc="F F F"
P        0.00000000       0.00000000       0.00000000       0.00000000       0.00000000       2.74152970
P        0.00000000       0.00000000       2.76666667       0.00000000       0.00000000      -2.74152970
2
Properties=species:S:1:pos:R:3:forces:R:3 energy=-5.30754411362514 pbc="F F F"
P        0.00000000       0.00000000       0.00000000       0.00000000       0.00000000       2.45899129
P        0.00000000       0.00000000       2.82545455       0.00000000       0.00000000      -2.45899129
2
Properties=species:S:1:pos:R:3:forces:R:3 energy=-5.1709284413189165 pbc="F F F"
P        0.00000000       0.00000000       0.00000000       0.00000000       0.00000000       2.19279432
P        0.00000000       0.00000000       2.88424242       0.00000000       0.00000000      -2.19279432
2
Properties=species:S:1:pos:R:3:forces:R:3 energy=-5.049095923730307 pbc="F F F"
P        0.00000000       0.00000000       0.00000000       0.00000000       0.00000000       1.95850837
P        0.00000000       0.00000000       2.94303030       0.00000000       0.00000000      -1.95850837
2
Properties=species:S:1:pos:R:3:forces:R:3 energy=-4.939793238216669 pbc="F F F"
P        0.00000000       0.00000000       0.00000000       0.00000000       0.00000000       1.76793122
P        0.00000000       0.00000000       3.00181818       0.00000000       0.00000000      -1.76793122
2
Properties=species:S:1:pos:R:3:forces:R:3 energy=-4.840286985355697 pbc="F F F"
P        0.00000000       0.00000000       0.00000000       0.00000000       0.00000000       1.62528801
P        0.00000000       0.00000000       3.06060606       0.00000000       0.00000000      -1.62528801
2
Properties=species:S:1:pos:R:3:forces:R:3 energy=-4.747817610789933 pbc="F F F"
P        0.00000000       0.00000000       0.00000000       0.00000000       0.00000000       1.52739573
P        0.00000000       0.00000000       3.11939394       0.00000000       0.00000000      -1.52739573
2
Properties=species:S:1:pos:R:3:forces:R:3 energy=-4.660002410440702 pbc="F F F"
P        0.00000000       0.00000000       0.00000000       0.00000000       0.00000000       1.46502674
P        0.00000000       0.00000000       3.17818182       0.00000000       0.00000000      -1.46502674
2
Properties=species:S:1:pos:R:3:forces:R:3 energy=-4.575130428079803 pbc="F F F"
P        0.00000000       0.00000000       0.00000000       0.00000000       0.00000000       1.42488611
P        0.00000000       0.00000000       3.23696970       0.00000000       0.00000000      -1.42488611
2
Properties=species:S:1:pos:R:3:forces:R:3 energy=-4.492323234757837 pbc="F F F"
P        0.00000000       0.00000000       0.00000000       0.00000000       0.00000000       1.39235628
P        0.00000000       0.00000000       3.29575758       0.00000000       0.00000000      -1.39235628
2
Properties=species:S:1:pos:R:3:forces:R:3 energy=-4.411532564969482 pbc="F F F"
P        0.00000000       0.00000000       0.00000000       0.00000000       0.00000000       1.35435009
P        0.00000000       0.00000000       3.35454545       0.00000000       0.00000000      -1.35435009
2
Properties=species:S:1:pos:R:3:forces:R:3 energy=-4.333378392776787 pbc="F F F"
P        0.00000000       0.00000000       0.00000000       0.00000000       0.00000000       1.30149829
P        0.00000000       0.00000000       3.41333333       0.00000000       0.00000000      -1.30149829
2
Properties=species:S:1:pos:R:3:forces:R:3 energy=-4.258890441400217 pbc="F F F"
P        0.00000000       0.00000000       0.00000000       0.00000000       0.00000000       1.22926021
P        0.00000000       0.00000000       3.47212121       0.00000000       0.00000000      -1.22926021
2
Properties=species:S:1:pos:R:3:forces:R:3 energy=-4.189225586518559 pbc="F F F"
P        0.00000000       0.00000000       0.00000000       0.00000000       0.00000000       1.13783193
P        0.00000000       0.00000000       3.53090909       0.00000000       0.00000000      -1.13783193
2
Properties=species:S:1:pos:R:3:forces:R:3 energy=-4.125410514595125 pbc="F F F"
P        0.00000000       0.00000000       0.00000000       0.00000000       0.00000000       1.03109133
P        0.00000000       0.00000000       3.58969697       0.00000000       0.00000000      -1.03109133
2
Properties=species:S:1:pos:R:3:forces:R:3 energy=-4.068176437781892 pbc="F F F"
P        0.00000000       0.00000000       0.00000000       0.00000000       0.00000000       0.91505855
P        0.00000000       0.00000000       3.64848485       0.00000000       0.00000000      -0.91505855
2
Properties=species:S:1:pos:R:3:forces:R:3 energy=-4.017874814119741 pbc="F F F"
P        0.00000000       0.00000000       0.00000000       0.00000000       0.00000000       0.79633188
P        0.00000000       0.00000000       3.70727273       0.00000000       0.00000000      -0.79633188
2
Properties=species:S:1:pos:R:3:forces:R:3 energy=-3.9744823669999096 pbc="F F F"
P        0.00000000       0.00000000       0.00000000       0.00000000       0.00000000       0.68085814
P        0.00000000       0.00000000       3.76606061       0.00000000       0.00000000      -0.68085814
2
Properties=species:S:1:pos:R:3:forces:R:3 energy=-3.937667455059918 pbc="F F F"
P        0.00000000       0.00000000       0.00000000       0.00000000       0.00000000       0.57322443
P        0.00000000       0.00000000       3.82484848       0.00000000       0.00000000      -0.57322443
2
Properties=species:S:1:pos:R:3:forces:R:3 energy=-3.906872740074076 pbc="F F F"
P        0.00000000       0.00000000       0.00000000       0.00000000       0.00000000       0.47636437
P        0.00000000       0.00000000       3.88363636       0.00000000       0.00000000      -0.47636437
2
Properties=species:S:1:pos:R:3:forces:R:3 energy=-3.88141876440295 pbc="F F F"
P        0.00000000       0.00000000       0.00000000       0.00000000       0.00000000       0.39167824
P        0.00000000       0.00000000       3.94242424       0.00000000       0.00000000      -0.39167824
2
Properties=species:S:1:pos:R:3:forces:R:3 energy=-3.8605795859517427 pbc="F F F"
P        0.00000000       0.00000000       0.00000000       0.00000000       0.00000000       0.31930506
P        0.00000000       0.00000000       4.00121212       0.00000000       0.00000000      -0.31930506
2
Properties=species:S:1:pos:R:3:forces:R:3 energy=-3.843648971420177 pbc="F F F"
P        0.00000000       0.00000000       0.00000000       0.00000000       0.00000000       0.25852537
P        0.00000000       0.00000000       4.06000000       0.00000000       0.00000000      -0.25852537
2
Properties=species:S:1:pos:R:3:forces:R:3 energy=-3.8299795817286717 pbc="F F F"
P        0.00000000       0.00000000       0.00000000       0.00000000       0.00000000       0.20813507
P        0.00000000       0.00000000       4.11878788       0.00000000       0.00000000      -0.20813507
2
Properties=species:S:1:pos:R:3:forces:R:3 energy=-3.819000791639242 pbc="F F F"
P        0.00000000       0.00000000       0.00000000       0.00000000       0.00000000       0.16674761
P        0.00000000       0.00000000       4.17757576       0.00000000       0.00000000      -0.16674761
2
Properties=species:S:1:pos:R:3:forces:R:3 energy=-3.8102240926033546 pbc="F F F"
P        0.00000000       0.00000000       0.00000000       0.00000000       0.00000000       0.13300358
P        0.00000000       0.00000000       4.23636364       0.00000000       0.00000000      -0.13300358
2
Properties=species:S:1:pos:R:3:forces:R:3 energy=-3.803237299440032 pbc="F F F"
P        0.00000000       0.00000000       0.00000000       0.00000000       0.00000000       0.10566561
P        0.00000000       0.00000000       4.29515152       0.00000000       0.00000000      -0.10566561
2
Properties=species:S:1:pos:R:3:forces:R:3 energy=-3.7976962611224696 pbc="F F F"
P        0.00000000       0.00000000       0.00000000       0.00000000       0.00000000       0.08364940
P        0.00000000       0.00000000       4.35393939       0.00000000       0.00000000      -0.08364940
2
Properties=species:S:1:pos:R:3:forces:R:3 energy=-3.7933164337643923 pbc="F F F"
P        0.00000000       0.00000000       0.00000000       0.00000000       0.00000000       0.06601797
P        0.00000000       0.00000000       4.41272727       0.00000000       0.00000000      -0.06601797
2
Properties=species:S:1:pos:R:3:forces:R:3 energy=-3.7898636709944897 pbc="F F F"
P        0.00000000       0.00000000       0.00000000       0.00000000       0.00000000       0.05198719
P        0.00000000       0.00000000       4.47151515       0.00000000       0.00000000      -0.05198719
2
Properties=species:S:1:pos:R:3:forces:R:3 energy=-3.7871458840578813 pbc="F F F"
P        0.00000000       0.00000000       0.00000000       0.00000000       0.00000000       0.04092571
P        0.00000000       0.00000000       4.53030303       0.00000000       0.00000000      -0.04092571
2
Properties=species:S:1:pos:R:3:forces:R:3 energy=-3.785003342682103 pbc="F F F"
P        0.00000000       0.00000000       0.00000000       0.00000000       0.00000000       0.03234852
P        0.00000000       0.00000000       4.58909091       0.00000000       0.00000000      -0.03234852
2
Properties=species:S:1:pos:R:3:forces:R:3 energy=-3.783301342705866 pbc="F F F"
P        0.00000000       0.00000000       0.00000000       0.00000000       0.00000000       0.02587405
P        0.00000000       0.00000000       4.64787879       0.00000000       0.00000000      -0.02587405
2
Properties=species:S:1:pos:R:3:forces:R:3 energy=-3.7819264230600145 pbc="F F F"
P        0.00000000       0.00000000       0.00000000       0.00000000       0.00000000       0.02115824
P        0.00000000       0.00000000       4.70666667       0.00000000       0.00000000      -0.02115824
2
Properties=species:S:1:pos:R:3:forces:R:3 energy=-3.7807864734734746 pbc="F F F"
P        0.00000000       0.00000000       0.00000000       0.00000000       0.00000000       0.01783082
P        0.00000000       0.00000000       4.76545455       0.00000000       0.00000000      -0.01783082
2
Properties=species:S:1:pos:R:3:forces:R:3 energy=-3.779811001402236 pbc="F F F"
P        0.00000000       0.00000000       0.00000000       0.00000000       0.00000000       0.01546953
P        0.00000000       0.00000000       4.82424242       0.00000000       0.00000000      -0.01546953
2
Properties=species:S:1:pos:R:3:forces:R:3 energy=-3.7789574275309827 pbc="F F F"
P        0.00000000       0.00000000       0.00000000       0.00000000       0.00000000       0.01362972
P        0.00000000       0.00000000       4.88303030       0.00000000       0.00000000      -0.01362972
2
Properties=species:S:1:pos:R:3:forces:R:3 energy=-3.778206547900536 pbc="F F F"
P        0.00000000       0.00000000       0.00000000       0.00000000       0.00000000       0.01190055
P        0.00000000       0.00000000       4.94181818       0.00000000       0.00000000      -0.01190055
2
Properties=species:S:1:pos:R:3:forces:R:3 energy=-3.7775619247741568 pbc="F F F"
P        0.00000000       0.00000000       0.00000000       0.00000000       0.00000000       0.00997361
P        0.00000000       0.00000000       5.00060606       0.00000000       0.00000000      -0.00997361
2
Properties=species:S:1:pos:R:3:forces:R:3 energy=-3.7770410897007434 pbc="F F F"
P        0.00000000       0.00000000       0.00000000       0.00000000       0.00000000       0.00767717
P        0.00000000       0.00000000       5.05939394       0.00000000       0.00000000      -0.00767717
2
Properties=species:S:1:pos:R:3:forces:R:3 energy=-3.7766672202473597 pbc="F F F"
P        0.00000000       0.00000000       0.00000000       0.00000000       0.00000000       0.00498821
P        0.00000000       0.00000000       5.11818182       0.00000000       0.00000000      -0.00498821
2
Properties=species:S:1:pos:R:3:forces:R:3 energy=-3.7764603596934982 pbc="F F F"
P        0.00000000       0.00000000       0.00000000       0.00000000       0.00000000       0.00201243
P        0.00000000       0.00000000       5.17696970       0.00000000       0.00000000      -0.00201243
2
Properties=species:S:1:pos:R:3:forces:R:3 energy=-3.7764322169638054 pbc="F F F"
P        0.00000000       0.00000000       0.00000000       0.00000000       0.00000000      -0.00104550
P        0.00000000       0.00000000       5.23575758       0.00000000       0.00000000       0.00104550
2
Properties=species:S:1:pos:R:3:forces:R:3 energy=-3.7765797031919117 pbc="F F F"
P        0.00000000       0.00000000       0.00000000       0.00000000       0.00000000      -0.00392291
P        0.00000000       0.00000000       5.29454545       0.00000000       0.00000000       0.00392291
2
Properties=species:S:1:pos:R:3:forces:R:3 energy=-3.7768845265552513 pbc="F F F"
P        0.00000000       0.00000000       0.00000000       0.00000000       0.00000000      -0.00634126
P        0.00000000       0.00000000       5.35333333       0.00000000       0.00000000       0.00634126
2
Properties=species:S:1:pos:R:3:forces:R:3 energy=-3.7773114968144967 pbc="F F F"
P        0.00000000       0.00000000       0.00000000       0.00000000       0.00000000      -0.00805334
P        0.00000000       0.00000000       5.41212121       0.00000000       0.00000000       0.00805334
2
Properties=species:S:1:pos:R:3:forces:R:3 energy=-3.777814032699544 pbc="F F F"
P        0.00000000       0.00000000       0.00000000       0.00000000       0.00000000      -0.00888999
P        0.00000000       0.00000000       5.47090909       0.00000000       0.00000000       0.00888999
2
Properties=species:S:1:pos:R:3:forces:R:3 energy=-3.7783384585916493 pbc="F F F"
P        0.00000000       0.00000000       0.00000000       0.00000000       0.00000000      -0.00878937
P        0.00000000       0.00000000       5.52969697       0.00000000       0.00000000       0.00878937
2
Properties=species:S:1:pos:R:3:forces:R:3 energy=-3.778830215681794 pbc="F F F"
P        0.00000000       0.00000000       0.00000000       0.00000000       0.00000000      -0.00781383
P        0.00000000       0.00000000       5.58848485       0.00000000       0.00000000       0.00781383
2
Properties=species:S:1:pos:R:3:forces:R:3 energy=-3.7792429131651812 pbc="F F F"
P        0.00000000       0.00000000       0.00000000       0.00000000       0.00000000      -0.00614230
P        0.00000000       0.00000000       5.64727273       0.00000000       0.00000000       0.00614230
2
Properties=species:S:1:pos:R:3:forces:R:3 energy=-3.7795438158283328 pbc="F F F"
P        0.00000000       0.00000000       0.00000000       0.00000000       0.00000000      -0.00403931
P        0.00000000       0.00000000       5.70606061       0.00000000       0.00000000       0.00403931
2
Properties=species:S:1:pos:R:3:forces:R:3 energy=-3.7797164777408363 pbc="F F F"
P        0.00000000       0.00000000       0.00000000       0.00000000       0.00000000      -0.00180799
P        0.00000000       0.00000000       5.76484848       0.00000000       0.00000000       0.00180799
2
Properties=species:S:1:pos:R:3:forces:R:3 energy=-3.7797604923534105 pbc="F F F"
P        0.00000000       0.00000000       0.00000000       0.00000000       0.00000000       0.00024750
P        0.00000000       0.00000000       5.82363636       0.00000000       0.00000000      -0.00024750
2
Properties=species:S:1:pos:R:3:forces:R:3 energy=-3.7796950632329045 pbc="F F F"
P        0.00000000       0.00000000       0.00000000       0.00000000       0.00000000       0.00186978
P        0.00000000       0.00000000       5.88242424       0.00000000       0.00000000      -0.00186978
2
Properties=species:S:1:pos:R:3:forces:R:3 energy=-3.779552822602261 pbc="F F F"
P        0.00000000       0.00000000       0.00000000       0.00000000       0.00000000       0.00285751
P        0.00000000       0.00000000       5.94121212       0.00000000       0.00000000      -0.00285751
2
Properties=species:S:1:pos:R:3:forces:R:3 energy=-3.779374323162577 pbc="F F F"
P        0.00000000       0.00000000       0.00000000       0.00000000       0.00000000       0.00307396
P        0.00000000       0.00000000       6.00000000       0.00000000       0.00000000      -0.00307396
