2
Properties=species:S:1:pos:R:3:forces:R:3 energy=20508.078346447375 pbc="F F F"
Pa       0.00000000       0.00000000       0.00000000       0.00000000       0.00000000 -369788.81250000
Pa       0.00000000       0.00000000       0.18000000       0.00000000       0.00000000  369788.81250000
2
Properties=species:S:1:pos:R:3:forces:R:3 energy=7713.208229259875 pbc="F F F"
Pa       0.00000000       0.00000000       0.00000000       0.00000000       0.00000000 -119308.12500000
Pa       0.00000000       0.00000000       0.23878788       0.00000000       0.00000000  119308.12500000
2
Properties=species:S:1:pos:R:3:forces:R:3 energy=3268.736793713 pbc="F F F"
Pa       0.00000000       0.00000000       0.00000000       0.00000000       0.00000000  -45227.01562500
Pa       0.00000000       0.00000000       0.29757576       0.00000000       0.00000000   45227.01562500
2
Properties=species:S:1:pos:R:3:forces:R:3 energy=1504.1657488037968 pbc="F F F"
Pa       0.00000000       0.00000000       0.00000000       0.00000000       0.00000000  -18978.76757812
Pa       0.00000000       0.00000000       0.35636364       0.00000000       0.00000000   18978.76757812
2
Properties=species:S:1:pos:R:3:forces:R:3 energy=738.092567651453 pbc="F F F"
Pa       0.00000000       0.00000000       0.00000000       0.00000000       0.00000000   -8588.81152344
Pa       0.00000000       0.00000000       0.41515152       0.00000000       0.00000000    8588.81152344
2
Properties=species:S:1:pos:R:3:forces:R:3 energy=381.4607927617805 pbc="F F F"
Pa       0.00000000       0.00000000       0.00000000       0.00000000       0.00000000   -4139.49169922
Pa       0.00000000       0.00000000       0.47393939       0.00000000       0.00000000    4139.49169922
2
Properties=species:S:1:pos:R:3:forces:R:3 energy=205.2431414072643 pbc="F F F"
Pa       0.00000000       0.00000000       0.00000000       0.00000000       0.00000000   -2107.94946289
Pa       0.00000000       0.00000000       0.53272727       0.00000000       0.00000000    2107.94946289
2
Properties=species:S:1:pos:R:3:forces:R:3 energy=113.5104372700092 pbc="F F F"
Pa       0.00000000       0.00000000       0.00000000       0.00000000       0.00000000   -1126.30078125
Pa       0.00000000       0.00000000       0.59151515       0.00000000       0.00000000    1126.30078125
2
Properties=species:S:1:pos:R:3:forces:R:3 energy=63.55350524015198 pbc="F F F"
Pa       0.00000000       0.00000000       0.00000000       0.00000000       0.00000000    -627.03198242
Pa       0.00000000       0.00000000       0.65030303       0.00000000       0.00000000     627.03198242
2
Properties=species:S:1:pos:R:3:forces:R:3 energy=35.29230535233655 pbc="F F F"
Pa       0.00000000       0.00000000       0.00000000       0.00000000       0.00000000    -361.20642090
Pa       0.00000000       0.00000000       0.70909091       0.00000000       0.00000000     361.20642090
2
Properties=species:S:1:pos:R:3:forces:R:3 energy=18.797361834932442 pbc="F F F"
Pa       0.00000000       0.00000000       0.00000000       0.00000000       0.00000000    -213.91384888
Pa       0.00000000       0.00000000       0.76787879       0.00000000       0.00000000     213.91384888
2
Properties=species:S:1:pos:R:3:forces:R:3 energy=8.92613184888937 pbc="F F F"
Pa       0.00000000       0.00000000       0.00000000       0.00000000       0.00000000    -129.47998047
Pa       0.00000000       0.00000000       0.82666667       0.00000000       0.00000000     129.47998047
2
Properties=species:S:1:pos:R:3:forces:R:3 energy=2.9035266451423403 pbc="F F F"
Pa       0.00000000       0.00000000       0.00000000       0.00000000       0.00000000     -79.65940857
Pa       0.00000000       0.00000000       0.88545455       0.00000000       0.00000000      79.65940857
2
Properties=species:S:1:pos:R:3:forces:R:3 energy=-0.8209503798677769 pbc="F F F"
Pa       0.00000000       0.00000000       0.00000000       0.00000000       0.00000000     -49.49720764
Pa       0.00000000       0.00000000       0.94424242       0.00000000       0.00000000      49.49720764
2
Properties=species:S:1:pos:R:3:forces:R:3 energy=-3.1380528834746766 pbc="F F F"
Pa       0.00000000       0.00000000       0.00000000       0.00000000       0.00000000     -30.77204895
Pa       0.00000000       0.00000000       1.00303030       0.00000000       0.00000000      30.77204895
2
Properties=species:S:1:pos:R:3:forces:R:3 energy=-4.570674307152138 pbc="F F F"
Pa       0.00000000       0.00000000       0.00000000       0.00000000       0.00000000     -18.82949066
Pa       0.00000000       0.00000000       1.06181818       0.00000000       0.00000000      18.82949066
2
Properties=species:S:1:pos:R:3:forces:R:3 energy=-5.431615020295963 pbc="F F F"
Pa       0.00000000       0.00000000       0.00000000       0.00000000       0.00000000     -10.98933029
Pa       0.00000000       0.00000000       1.12060606       0.00000000       0.00000000      10.98933029
2
Properties=species:S:1:pos:R:3:forces:R:3 energy=-5.912507230362696 pbc="F F F"
Pa       0.00000000       0.00000000       0.00000000       0.00000000       0.00000000      -5.71002913
Pa       0.00000000       0.00000000       1.17939394       0.00000000       0.00000000       5.71002913
2
Properties=species:S:1:pos:R:3:forces:R:3 energy=-6.13590518888276 pbc="F F F"
Pa       0.00000000       0.00000000       0.00000000       0.00000000       0.00000000      -2.12378788
Pa       0.00000000       0.00000000       1.23818182       0.00000000       0.00000000       2.12378788
2
Properties=species:S:1:pos:R:3:forces:R:3 energy=-6.185897183342778 pbc="F F F"
Pa       0.00000000       0.00000000       0.00000000       0.00000000       0.00000000       0.24760963
Pa       0.00000000       0.00000000       1.29696970       0.00000000       0.00000000      -0.24760963
2
Properties=species:S:1:pos:R:3:forces:R:3 energy=-6.12500935108743 pbc="F F F"
Pa       0.00000000       0.00000000       0.00000000       0.00000000       0.00000000       1.68730319
Pa       0.00000000       0.00000000       1.35575758       0.00000000       0.00000000      -1.68730319
2
Properties=species:S:1:pos:R:3:forces:R:3 energy=-6.001556651635469 pbc="F F F"
Pa       0.00000000       0.00000000       0.00000000       0.00000000       0.00000000       2.40998006
Pa       0.00000000       0.00000000       1.41454545       0.00000000       0.00000000      -2.40998006
2
Properties=species:S:1:pos:R:3:forces:R:3 energy=-5.8518925717208345 pbc="F F F"
Pa       0.00000000       0.00000000       0.00000000       0.00000000       0.00000000       2.60881066
Pa       0.00000000       0.00000000       1.47333333       0.00000000       0.00000000      -2.60881066
2
Properties=species:S:1:pos:R:3:forces:R:3 energy=-5.702026105438697 pbc="F F F"
Pa       0.00000000       0.00000000       0.00000000       0.00000000       0.00000000       2.43788171
Pa       0.00000000       0.00000000       1.53212121       0.00000000       0.00000000      -2.43788171
2
Properties=species:S:1:pos:R:3:forces:R:3 energy=-5.570557113106198 pbc="F F F"
Pa       0.00000000       0.00000000       0.00000000       0.00000000       0.00000000       1.99564195
Pa       0.00000000       0.00000000       1.59090909       0.00000000       0.00000000      -1.99564195
2
Properties=species:S:1:pos:R:3:forces:R:3 energy=-5.471274594266217 pbc="F F F"
Pa       0.00000000       0.00000000       0.00000000       0.00000000       0.00000000       1.35595357
Pa       0.00000000       0.00000000       1.64969697       0.00000000       0.00000000      -1.35595357
2
Properties=species:S:1:pos:R:3:forces:R:3 energy=-5.41317680354703 pbc="F F F"
Pa       0.00000000       0.00000000       0.00000000       0.00000000       0.00000000       0.61270231
Pa       0.00000000       0.00000000       1.70848485       0.00000000       0.00000000      -0.61270231
2
Properties=species:S:1:pos:R:3:forces:R:3 energy=-5.398983894195567 pbc="F F F"
Pa       0.00000000       0.00000000       0.00000000       0.00000000       0.00000000      -0.11836514
Pa       0.00000000       0.00000000       1.76727273       0.00000000       0.00000000       0.11836514
2
Properties=species:S:1:pos:R:3:forces:R:3 energy=-5.424899086017599 pbc="F F F"
Pa       0.00000000       0.00000000       0.00000000       0.00000000       0.00000000      -0.73953199
Pa       0.00000000       0.00000000       1.82606061       0.00000000       0.00000000       0.73953199
2
Properties=species:S:1:pos:R:3:forces:R:3 energy=-5.483009991963867 pbc="F F F"
Pa       0.00000000       0.00000000       0.00000000       0.00000000       0.00000000      -1.21427417
Pa       0.00000000       0.00000000       1.88484848       0.00000000       0.00000000       1.21427417
2
Properties=species:S:1:pos:R:3:forces:R:3 energy=-5.565589651283209 pbc="F F F"
Pa       0.00000000       0.00000000       0.00000000       0.00000000       0.00000000      -1.58456194
Pa       0.00000000       0.00000000       1.94363636       0.00000000       0.00000000       1.58456194
2
Properties=species:S:1:pos:R:3:forces:R:3 energy=-5.668827856313233 pbc="F F F"
Pa       0.00000000       0.00000000       0.00000000       0.00000000       0.00000000      -1.92707622
Pa       0.00000000       0.00000000       2.00242424       0.00000000       0.00000000       1.92707622
2
Properties=species:S:1:pos:R:3:forces:R:3 energy=-5.791760087523972 pbc="F F F"
Pa       0.00000000       0.00000000       0.00000000       0.00000000       0.00000000      -2.24485254
Pa       0.00000000       0.00000000       2.06121212       0.00000000       0.00000000       2.24485254
2
Properties=species:S:1:pos:R:3:forces:R:3 energy=-5.930540311109726 pbc="F F F"
Pa       0.00000000       0.00000000       0.00000000       0.00000000       0.00000000      -2.45077872
Pa       0.00000000       0.00000000       2.12000000       0.00000000       0.00000000       2.45077872
2
Properties=species:S:1:pos:R:3:forces:R:3 energy=-6.076651797272464 pbc="F F F"
Pa       0.00000000       0.00000000       0.00000000       0.00000000       0.00000000      -2.49329257
Pa       0.00000000       0.00000000       2.17878788       0.00000000       0.00000000       2.49329257
2
Properties=species:S:1:pos:R:3:forces:R:3 energy=-6.220965042451997 pbc="F F F"
Pa       0.00000000       0.00000000       0.00000000       0.00000000       0.00000000      -2.39709902
Pa       0.00000000       0.00000000       2.23757576       0.00000000       0.00000000       2.39709902
2
Properties=species:S:1:pos:R:3:forces:R:3 energy=-6.356651708528471 pbc="F F F"
Pa       0.00000000       0.00000000       0.00000000       0.00000000       0.00000000      -2.20649672
Pa       0.00000000       0.00000000       2.29636364       0.00000000       0.00000000       2.20649672
2
Properties=species:S:1:pos:R:3:forces:R:3 energy=-6.479195125911135 pbc="F F F"
Pa       0.00000000       0.00000000       0.00000000       0.00000000       0.00000000      -1.95427191
Pa       0.00000000       0.00000000       2.35515152       0.00000000       0.00000000       1.95427191
2
Properties=species:S:1:pos:R:3:forces:R:3 energy=-6.585647330560706 pbc="F F F"
Pa       0.00000000       0.00000000       0.00000000       0.00000000       0.00000000      -1.66198790
Pa       0.00000000       0.00000000       2.41393939       0.00000000       0.00000000       1.66198790
2
Properties=species:S:1:pos:R:3:forces:R:3 energy=-6.674111358219734 pbc="F F F"
Pa       0.00000000       0.00000000       0.00000000       0.00000000       0.00000000      -1.34442949
Pa       0.00000000       0.00000000       2.47272727       0.00000000       0.00000000       1.34442949
2
Properties=species:S:1:pos:R:3:forces:R:3 energy=-6.743430118502262 pbc="F F F"
Pa       0.00000000       0.00000000       0.00000000       0.00000000       0.00000000      -1.01209056
Pa       0.00000000       0.00000000       2.53151515       0.00000000       0.00000000       1.01209056
2
Properties=species:S:1:pos:R:3:forces:R:3 energy=-6.79298766784045 pbc="F F F"
Pa       0.00000000       0.00000000       0.00000000       0.00000000       0.00000000      -0.67351234
Pa       0.00000000       0.00000000       2.59030303       0.00000000       0.00000000       0.67351234
2
Properties=species:S:1:pos:R:3:forces:R:3 energy=-6.822675906911231 pbc="F F F"
Pa       0.00000000       0.00000000       0.00000000       0.00000000       0.00000000      -0.33788544
Pa       0.00000000       0.00000000       2.64909091       0.00000000       0.00000000       0.33788544
2
Properties=species:S:1:pos:R:3:forces:R:3 energy=-6.832997902244181 pbc="F F F"
Pa       0.00000000       0.00000000       0.00000000       0.00000000       0.00000000      -0.01686076
Pa       0.00000000       0.00000000       2.70787879       0.00000000       0.00000000       0.01686076
2
Properties=species:S:1:pos:R:3:forces:R:3 energy=-6.8252163092906075 pbc="F F F"
Pa       0.00000000       0.00000000       0.00000000       0.00000000       0.00000000       0.27564561
Pa       0.00000000       0.00000000       2.76666667       0.00000000       0.00000000      -0.27564561
2
Properties=species:S:1:pos:R:3:forces:R:3 energy=-6.801420905901967 pbc="F F F"
Pa       0.00000000       0.00000000       0.00000000       0.00000000       0.00000000       0.52579665
Pa       0.00000000       0.00000000       2.82545455       0.00000000       0.00000000      -0.52579665
2
Properties=species:S:1:pos:R:3:forces:R:3 energy=-6.7644353983439265 pbc="F F F"
Pa       0.00000000       0.00000000       0.00000000       0.00000000       0.00000000       0.72306848
Pa       0.00000000       0.00000000       2.88424242       0.00000000       0.00000000      -0.72306848
2
Properties=species:S:1:pos:R:3:forces:R:3 energy=-6.717540036782648 pbc="F F F"
Pa       0.00000000       0.00000000       0.00000000       0.00000000       0.00000000       0.86266625
Pa       0.00000000       0.00000000       2.94303030       0.00000000       0.00000000      -0.86266625
2
Properties=species:S:1:pos:R:3:forces:R:3 energy=-6.664110012663931 pbc="F F F"
Pa       0.00000000       0.00000000       0.00000000       0.00000000       0.00000000       0.94616586
Pa       0.00000000       0.00000000       3.00181818       0.00000000       0.00000000      -0.94616586
2
Properties=species:S:1:pos:R:3:forces:R:3 energy=-6.607258619792126 pbc="F F F"
Pa       0.00000000       0.00000000       0.00000000       0.00000000       0.00000000       0.98056877
Pa       0.00000000       0.00000000       3.06060606       0.00000000       0.00000000      -0.98056877
2
Properties=species:S:1:pos:R:3:forces:R:3 energy=-6.54957442835694 pbc="F F F"
Pa       0.00000000       0.00000000       0.00000000       0.00000000       0.00000000       0.97649634
Pa       0.00000000       0.00000000       3.11939394       0.00000000       0.00000000      -0.97649634
2
Properties=species:S:1:pos:R:3:forces:R:3 energy=-6.492960869579476 pbc="F F F"
Pa       0.00000000       0.00000000       0.00000000       0.00000000       0.00000000       0.94616443
Pa       0.00000000       0.00000000       3.17818182       0.00000000       0.00000000      -0.94616443
2
Properties=species:S:1:pos:R:3:forces:R:3 energy=-6.438605350666735 pbc="F F F"
Pa       0.00000000       0.00000000       0.00000000       0.00000000       0.00000000       0.90160835
Pa       0.00000000       0.00000000       3.23696970       0.00000000       0.00000000      -0.90160835
2
Properties=species:S:1:pos:R:3:forces:R:3 energy=-6.387023854093101 pbc="F F F"
Pa       0.00000000       0.00000000       0.00000000       0.00000000       0.00000000       0.85335821
Pa       0.00000000       0.00000000       3.29575758       0.00000000       0.00000000      -0.85335821
2
Properties=species:S:1:pos:R:3:forces:R:3 energy=-6.338179733409182 pbc="F F F"
Pa       0.00000000       0.00000000       0.00000000       0.00000000       0.00000000       0.80967367
Pa       0.00000000       0.00000000       3.35454545       0.00000000       0.00000000      -0.80967367
2
Properties=species:S:1:pos:R:3:forces:R:3 energy=-6.291623924037082 pbc="F F F"
Pa       0.00000000       0.00000000       0.00000000       0.00000000       0.00000000       0.77622980
Pa       0.00000000       0.00000000       3.41333333       0.00000000       0.00000000      -0.77622980
2
Properties=species:S:1:pos:R:3:forces:R:3 energy=-6.246650110087961 pbc="F F F"
Pa       0.00000000       0.00000000       0.00000000       0.00000000       0.00000000       0.75618750
Pa       0.00000000       0.00000000       3.47212121       0.00000000       0.00000000      -0.75618750
2
Properties=species:S:1:pos:R:3:forces:R:3 energy=-6.202431960092766 pbc="F F F"
Pa       0.00000000       0.00000000       0.00000000       0.00000000       0.00000000       0.75054091
Pa       0.00000000       0.00000000       3.53090909       0.00000000       0.00000000      -0.75054091
2
Properties=species:S:1:pos:R:3:forces:R:3 energy=-6.158133656524433 pbc="F F F"
Pa       0.00000000       0.00000000       0.00000000       0.00000000       0.00000000       0.75867850
Pa       0.00000000       0.00000000       3.58969697       0.00000000       0.00000000      -0.75867850
2
Properties=species:S:1:pos:R:3:forces:R:3 energy=-6.112990291208298 pbc="F F F"
Pa       0.00000000       0.00000000       0.00000000       0.00000000       0.00000000       0.77899313
Pa       0.00000000       0.00000000       3.64848485       0.00000000       0.00000000      -0.77899313
2
Properties=species:S:1:pos:R:3:forces:R:3 energy=-6.066347156038396 pbc="F F F"
Pa       0.00000000       0.00000000       0.00000000       0.00000000       0.00000000       0.80930454
Pa       0.00000000       0.00000000       3.70727273       0.00000000       0.00000000      -0.80930454
2
Properties=species:S:1:pos:R:3:forces:R:3 energy=-6.017690585337279 pbc="F F F"
Pa       0.00000000       0.00000000       0.00000000       0.00000000       0.00000000       0.84697551
Pa       0.00000000       0.00000000       3.76606061       0.00000000       0.00000000      -0.84697551
2
Properties=species:S:1:pos:R:3:forces:R:3 energy=-5.966680882962515 pbc="F F F"
Pa       0.00000000       0.00000000       0.00000000       0.00000000       0.00000000       0.88880789
Pa       0.00000000       0.00000000       3.82484848       0.00000000       0.00000000      -0.88880789
2
Properties=species:S:1:pos:R:3:forces:R:3 energy=-5.9131824390753795 pbc="F F F"
Pa       0.00000000       0.00000000       0.00000000       0.00000000       0.00000000       0.93094146
Pa       0.00000000       0.00000000       3.88363636       0.00000000       0.00000000      -0.93094146
2
Properties=species:S:1:pos:R:3:forces:R:3 energy=-5.8573042486280205 pbc="F F F"
Pa       0.00000000       0.00000000       0.00000000       0.00000000       0.00000000       0.96902686
Pa       0.00000000       0.00000000       3.94242424       0.00000000       0.00000000      -0.96902686
2
Properties=species:S:1:pos:R:3:forces:R:3 energy=-5.799415182823806 pbc="F F F"
Pa       0.00000000       0.00000000       0.00000000       0.00000000       0.00000000       0.99867719
Pa       0.00000000       0.00000000       4.00121212       0.00000000       0.00000000      -0.99867719
2
Properties=species:S:1:pos:R:3:forces:R:3 energy=-5.7401245021502785 pbc="F F F"
Pa       0.00000000       0.00000000       0.00000000       0.00000000       0.00000000       1.01611137
Pa       0.00000000       0.00000000       4.06000000       0.00000000       0.00000000      -1.01611137
2
Properties=species:S:1:pos:R:3:forces:R:3 energy=-5.680236518835266 pbc="F F F"
Pa       0.00000000       0.00000000       0.00000000       0.00000000       0.00000000       1.01872778
Pa       0.00000000       0.00000000       4.11878788       0.00000000       0.00000000      -1.01872778
2
Properties=species:S:1:pos:R:3:forces:R:3 energy=-5.620658700323877 pbc="F F F"
Pa       0.00000000       0.00000000       0.00000000       0.00000000       0.00000000       1.00543821
Pa       0.00000000       0.00000000       4.17757576       0.00000000       0.00000000      -1.00543821
2
Properties=species:S:1:pos:R:3:forces:R:3 energy=-5.5623238814652645 pbc="F F F"
Pa       0.00000000       0.00000000       0.00000000       0.00000000       0.00000000       0.97668093
Pa       0.00000000       0.00000000       4.23636364       0.00000000       0.00000000      -0.97668093
2
Properties=species:S:1:pos:R:3:forces:R:3 energy=-5.506093574275472 pbc="F F F"
Pa       0.00000000       0.00000000       0.00000000       0.00000000       0.00000000       0.93416286
Pa       0.00000000       0.00000000       4.29515152       0.00000000       0.00000000      -0.93416286
2
Properties=species:S:1:pos:R:3:forces:R:3 energy=-5.452708891724001 pbc="F F F"
Pa       0.00000000       0.00000000       0.00000000       0.00000000       0.00000000       0.88048798
Pa       0.00000000       0.00000000       4.35393939       0.00000000       0.00000000      -0.88048798
2
Properties=species:S:1:pos:R:3:forces:R:3 energy=-5.402729938729562 pbc="F F F"
Pa       0.00000000       0.00000000       0.00000000       0.00000000       0.00000000       0.81873018
Pa       0.00000000       0.00000000       4.41272727       0.00000000       0.00000000      -0.81873018
2
Properties=species:S:1:pos:R:3:forces:R:3 energy=-5.356540274756899 pbc="F F F"
Pa       0.00000000       0.00000000       0.00000000       0.00000000       0.00000000       0.75209439
Pa       0.00000000       0.00000000       4.47151515       0.00000000       0.00000000      -0.75209439
2
Properties=species:S:1:pos:R:3:forces:R:3 energy=-5.31433782223256 pbc="F F F"
Pa       0.00000000       0.00000000       0.00000000       0.00000000       0.00000000       0.68354714
Pa       0.00000000       0.00000000       4.53030303       0.00000000       0.00000000      -0.68354714
2
Properties=species:S:1:pos:R:3:forces:R:3 energy=-5.276161117931176 pbc="F F F"
Pa       0.00000000       0.00000000       0.00000000       0.00000000       0.00000000       0.61554444
Pa       0.00000000       0.00000000       4.58909091       0.00000000       0.00000000      -0.61554444
2
Properties=species:S:1:pos:R:3:forces:R:3 energy=-5.241919976273403 pbc="F F F"
Pa       0.00000000       0.00000000       0.00000000       0.00000000       0.00000000       0.54985011
Pa       0.00000000       0.00000000       4.64787879       0.00000000       0.00000000      -0.54985011
2
Properties=species:S:1:pos:R:3:forces:R:3 energy=-5.211445894680518 pbc="F F F"
Pa       0.00000000       0.00000000       0.00000000       0.00000000       0.00000000       0.48749197
Pa       0.00000000       0.00000000       4.70666667       0.00000000       0.00000000      -0.48749197
2
Properties=species:S:1:pos:R:3:forces:R:3 energy=-5.184528025437549 pbc="F F F"
Pa       0.00000000       0.00000000       0.00000000       0.00000000       0.00000000       0.42894173
Pa       0.00000000       0.00000000       4.76545455       0.00000000       0.00000000      -0.42894173
2
Properties=species:S:1:pos:R:3:forces:R:3 energy=-5.1609336036633415 pbc="F F F"
Pa       0.00000000       0.00000000       0.00000000       0.00000000       0.00000000       0.37438732
Pa       0.00000000       0.00000000       4.82424242       0.00000000       0.00000000      -0.37438732
2
Properties=species:S:1:pos:R:3:forces:R:3 energy=-5.140426632658751 pbc="F F F"
Pa       0.00000000       0.00000000       0.00000000       0.00000000       0.00000000       0.32408655
Pa       0.00000000       0.00000000       4.88303030       0.00000000       0.00000000      -0.32408655
2
Properties=species:S:1:pos:R:3:forces:R:3 energy=-5.122737735459722 pbc="F F F"
Pa       0.00000000       0.00000000       0.00000000       0.00000000       0.00000000       0.27850428
Pa       0.00000000       0.00000000       4.94181818       0.00000000       0.00000000      -0.27850428
2
Properties=species:S:1:pos:R:3:forces:R:3 energy=-5.107573811957695 pbc="F F F"
Pa       0.00000000       0.00000000       0.00000000       0.00000000       0.00000000       0.23835263
Pa       0.00000000       0.00000000       5.00060606       0.00000000       0.00000000      -0.23835263
2
Properties=species:S:1:pos:R:3:forces:R:3 energy=-5.094592277021777 pbc="F F F"
Pa       0.00000000       0.00000000       0.00000000       0.00000000       0.00000000       0.20431793
Pa       0.00000000       0.00000000       5.05939394       0.00000000       0.00000000      -0.20431793
2
Properties=species:S:1:pos:R:3:forces:R:3 energy=-5.0834233578035715 pbc="F F F"
Pa       0.00000000       0.00000000       0.00000000       0.00000000       0.00000000       0.17676848
Pa       0.00000000       0.00000000       5.11818182       0.00000000       0.00000000      -0.17676848
2
Properties=species:S:1:pos:R:3:forces:R:3 energy=-5.073685848370343 pbc="F F F"
Pa       0.00000000       0.00000000       0.00000000       0.00000000       0.00000000       0.15550414
Pa       0.00000000       0.00000000       5.17696970       0.00000000       0.00000000      -0.15550414
2
Properties=species:S:1:pos:R:3:forces:R:3 energy=-5.065032453584549 pbc="F F F"
Pa       0.00000000       0.00000000       0.00000000       0.00000000       0.00000000       0.13970503
Pa       0.00000000       0.00000000       5.23575758       0.00000000       0.00000000      -0.13970503
2
Properties=species:S:1:pos:R:3:forces:R:3 energy=-5.057178635416007 pbc="F F F"
Pa       0.00000000       0.00000000       0.00000000       0.00000000       0.00000000       0.12805068
Pa       0.00000000       0.00000000       5.29454545       0.00000000       0.00000000      -0.12805068
2
Properties=species:S:1:pos:R:3:forces:R:3 energy=-5.049925653180959 pbc="F F F"
Pa       0.00000000       0.00000000       0.00000000       0.00000000       0.00000000       0.11900310
Pa       0.00000000       0.00000000       5.35333333       0.00000000       0.00000000      -0.11900310
2
Properties=species:S:1:pos:R:3:forces:R:3 energy=-5.043165122837381 pbc="F F F"
Pa       0.00000000       0.00000000       0.00000000       0.00000000       0.00000000       0.11109696
Pa       0.00000000       0.00000000       5.41212121       0.00000000       0.00000000      -0.11109696
2
Properties=species:S:1:pos:R:3:forces:R:3 energy=-5.036863211666684 pbc="F F F"
Pa       0.00000000       0.00000000       0.00000000       0.00000000       0.00000000       0.10320244
Pa       0.00000000       0.00000000       5.47090909       0.00000000       0.00000000      -0.10320244
2
Properties=species:S:1:pos:R:3:forces:R:3 energy=-5.0310434594647235 pbc="F F F"
Pa       0.00000000       0.00000000       0.00000000       0.00000000       0.00000000       0.09464945
Pa       0.00000000       0.00000000       5.52969697       0.00000000       0.00000000      -0.09464945
2
Properties=species:S:1:pos:R:3:forces:R:3 energy=-5.025751880730235 pbc="F F F"
Pa       0.00000000       0.00000000       0.00000000       0.00000000       0.00000000       0.08524810
Pa       0.00000000       0.00000000       5.58848485       0.00000000       0.00000000      -0.08524810
2
Properties=species:S:1:pos:R:3:forces:R:3 energy=-5.021033937097066 pbc="F F F"
Pa       0.00000000       0.00000000       0.00000000       0.00000000       0.00000000       0.07523587
Pa       0.00000000       0.00000000       5.64727273       0.00000000       0.00000000      -0.07523587
2
Properties=species:S:1:pos:R:3:forces:R:3 energy=-5.0169092016083425 pbc="F F F"
Pa       0.00000000       0.00000000       0.00000000       0.00000000       0.00000000       0.06510860
Pa       0.00000000       0.00000000       5.70606061       0.00000000       0.00000000      -0.06510860
2
Properties=species:S:1:pos:R:3:forces:R:3 energy=-5.0133651725047095 pbc="F F F"
Pa       0.00000000       0.00000000       0.00000000       0.00000000       0.00000000       0.05551177
Pa       0.00000000       0.00000000       5.76484848       0.00000000       0.00000000      -0.05551177
2
Properties=species:S:1:pos:R:3:forces:R:3 energy=-5.010357133840148 pbc="F F F"
Pa       0.00000000       0.00000000       0.00000000       0.00000000       0.00000000       0.04709839
Pa       0.00000000       0.00000000       5.82363636       0.00000000       0.00000000      -0.04709839
2
Properties=species:S:1:pos:R:3:forces:R:3 energy=-5.007795637338626 pbc="F F F"
Pa       0.00000000       0.00000000       0.00000000       0.00000000       0.00000000       0.04043427
Pa       0.00000000       0.00000000       5.88242424       0.00000000       0.00000000      -0.04043427
2
Properties=species:S:1:pos:R:3:forces:R:3 energy=-5.005560927886084 pbc="F F F"
Pa       0.00000000       0.00000000       0.00000000       0.00000000       0.00000000       0.03595405
Pa       0.00000000       0.00000000       5.94121212       0.00000000       0.00000000      -0.03595405
2
Properties=species:S:1:pos:R:3:forces:R:3 energy=-5.003518460576929 pbc="F F F"
Pa       0.00000000       0.00000000       0.00000000       0.00000000       0.00000000       0.03397926
Pa       0.00000000       0.00000000       6.00000000       0.00000000       0.00000000      -0.03397926
