2
Properties=species:S:1:pos:R:3:forces:R:3 energy=8101.124140625533 pbc="F F F"
Pd       0.00000000       0.00000000       0.00000000       0.00000000       0.00000000 -133925.68750000
Pd       0.00000000       0.00000000       0.18000000       0.00000000       0.00000000  133925.68750000
2
Properties=species:S:1:pos:R:3:forces:R:3 energy=3328.835322266158 pbc="F F F"
Pd       0.00000000       0.00000000       0.00000000       0.00000000       0.00000000  -46426.27734375
Pd       0.00000000       0.00000000       0.23878788       0.00000000       0.00000000   46426.27734375
2
Properties=species:S:1:pos:R:3:forces:R:3 energy=1544.225214844283 pbc="F F F"
Pd       0.00000000       0.00000000       0.00000000       0.00000000       0.00000000  -18966.17382812
Pd       0.00000000       0.00000000       0.29757576       0.00000000       0.00000000   18966.17382812
2
Properties=species:S:1:pos:R:3:forces:R:3 energy=779.7270459053062 pbc="F F F"
Pd       0.00000000       0.00000000       0.00000000       0.00000000       0.00000000   -8578.10839844
Pd       0.00000000       0.00000000       0.35636364       0.00000000       0.00000000    8578.10839844
2
Properties=species:S:1:pos:R:3:forces:R:3 energy=422.7216748210597 pbc="F F F"
Pd       0.00000000       0.00000000       0.00000000       0.00000000       0.00000000   -4155.25341797
Pd       0.00000000       0.00000000       0.41515152       0.00000000       0.00000000    4155.25341797
2
Properties=species:S:1:pos:R:3:forces:R:3 energy=245.71491519651195 pbc="F F F"
Pd       0.00000000       0.00000000       0.00000000       0.00000000       0.00000000   -2115.74902344
Pd       0.00000000       0.00000000       0.47393939       0.00000000       0.00000000    2115.74902344
2
Properties=species:S:1:pos:R:3:forces:R:3 energy=154.01462836612362 pbc="F F F"
Pd       0.00000000       0.00000000       0.00000000       0.00000000       0.00000000   -1117.32690430
Pd       0.00000000       0.00000000       0.53272727       0.00000000       0.00000000    1117.32690430
2
Properties=species:S:1:pos:R:3:forces:R:3 energy=105.01304151224976 pbc="F F F"
Pd       0.00000000       0.00000000       0.00000000       0.00000000       0.00000000    -604.46484375
Pd       0.00000000       0.00000000       0.59151515       0.00000000       0.00000000     604.46484375
2
Properties=species:S:1:pos:R:3:forces:R:3 energy=78.31077110263973 pbc="F F F"
Pd       0.00000000       0.00000000       0.00000000       0.00000000       0.00000000    -332.10632324
Pd       0.00000000       0.00000000       0.65030303       0.00000000       0.00000000     332.10632324
2
Properties=species:S:1:pos:R:3:forces:R:3 energy=63.505179671443244 pbc="F F F"
Pd       0.00000000       0.00000000       0.00000000       0.00000000       0.00000000    -187.02636719
Pd       0.00000000       0.00000000       0.70909091       0.00000000       0.00000000     187.02636719
2
Properties=species:S:1:pos:R:3:forces:R:3 energy=54.95086624936194 pbc="F F F"
Pd       0.00000000       0.00000000       0.00000000       0.00000000       0.00000000    -112.61476135
Pd       0.00000000       0.00000000       0.76787879       0.00000000       0.00000000     112.61476135
2
Properties=species:S:1:pos:R:3:forces:R:3 energy=49.51144780192995 pbc="F F F"
Pd       0.00000000       0.00000000       0.00000000       0.00000000       0.00000000     -77.03858948
Pd       0.00000000       0.00000000       0.82666667       0.00000000       0.00000000      77.03858948
2
Properties=species:S:1:pos:R:3:forces:R:3 energy=45.50265542208076 pbc="F F F"
Pd       0.00000000       0.00000000       0.00000000       0.00000000       0.00000000     -61.75710678
Pd       0.00000000       0.00000000       0.88545455       0.00000000       0.00000000      61.75710678
2
Properties=species:S:1:pos:R:3:forces:R:3 energy=41.98985399814601 pbc="F F F"
Pd       0.00000000       0.00000000       0.00000000       0.00000000       0.00000000     -60.30422974
Pd       0.00000000       0.00000000       0.94424242       0.00000000       0.00000000      60.30422974
2
Properties=species:S:1:pos:R:3:forces:R:3 energy=38.05996909373831 pbc="F F F"
Pd       0.00000000       0.00000000       0.00000000       0.00000000       0.00000000     -75.45069122
Pd       0.00000000       0.00000000       1.00303030       0.00000000       0.00000000      75.45069122
2
Properties=species:S:1:pos:R:3:forces:R:3 energy=33.26073027707288 pbc="F F F"
Pd       0.00000000       0.00000000       0.00000000       0.00000000       0.00000000     -85.08536530
Pd       0.00000000       0.00000000       1.06181818       0.00000000       0.00000000      85.08536530
2
Properties=species:S:1:pos:R:3:forces:R:3 energy=28.153756441780388 pbc="F F F"
Pd       0.00000000       0.00000000       0.00000000       0.00000000       0.00000000     -89.08410645
Pd       0.00000000       0.00000000       1.12060606       0.00000000       0.00000000      89.08410645
2
Properties=species:S:1:pos:R:3:forces:R:3 energy=22.817104031015997 pbc="F F F"
Pd       0.00000000       0.00000000       0.00000000       0.00000000       0.00000000     -91.21316528
Pd       0.00000000       0.00000000       1.17939394       0.00000000       0.00000000      91.21316528
2
Properties=species:S:1:pos:R:3:forces:R:3 energy=17.62750886191628 pbc="F F F"
Pd       0.00000000       0.00000000       0.00000000       0.00000000       0.00000000     -83.74584961
Pd       0.00000000       0.00000000       1.23818182       0.00000000       0.00000000      83.74584961
2
Properties=species:S:1:pos:R:3:forces:R:3 energy=13.10376895781956 pbc="F F F"
Pd       0.00000000       0.00000000       0.00000000       0.00000000       0.00000000     -69.48897552
Pd       0.00000000       0.00000000       1.29696970       0.00000000       0.00000000      69.48897552
2
Properties=species:S:1:pos:R:3:forces:R:3 energy=9.477261144073093 pbc="F F F"
Pd       0.00000000       0.00000000       0.00000000       0.00000000       0.00000000     -54.27827072
Pd       0.00000000       0.00000000       1.35575758       0.00000000       0.00000000      54.27827072
2
Properties=species:S:1:pos:R:3:forces:R:3 energy=6.62604786531184 pbc="F F F"
Pd       0.00000000       0.00000000       0.00000000       0.00000000       0.00000000     -43.66581726
Pd       0.00000000       0.00000000       1.41454545       0.00000000       0.00000000      43.66581726
2
Properties=species:S:1:pos:R:3:forces:R:3 energy=4.269684737082661 pbc="F F F"
Pd       0.00000000       0.00000000       0.00000000       0.00000000       0.00000000     -36.68622589
Pd       0.00000000       0.00000000       1.47333333       0.00000000       0.00000000      36.68622589
2
Properties=species:S:1:pos:R:3:forces:R:3 energy=2.3241532960324744 pbc="F F F"
Pd       0.00000000       0.00000000       0.00000000       0.00000000       0.00000000     -29.33278465
Pd       0.00000000       0.00000000       1.53212121       0.00000000       0.00000000      29.33278465
2
Properties=species:S:1:pos:R:3:forces:R:3 energy=0.8218905894208408 pbc="F F F"
Pd       0.00000000       0.00000000       0.00000000       0.00000000       0.00000000     -21.96513748
Pd       0.00000000       0.00000000       1.59090909       0.00000000       0.00000000      21.96513748
2
Properties=species:S:1:pos:R:3:forces:R:3 energy=-0.2963084578279063 pbc="F F F"
Pd       0.00000000       0.00000000       0.00000000       0.00000000       0.00000000     -16.45763206
Pd       0.00000000       0.00000000       1.64969697       0.00000000       0.00000000      16.45763206
2
Properties=species:S:1:pos:R:3:forces:R:3 energy=-1.1543953188167442 pbc="F F F"
Pd       0.00000000       0.00000000       0.00000000       0.00000000       0.00000000     -13.02319241
Pd       0.00000000       0.00000000       1.70848485       0.00000000       0.00000000      13.02319241
2
Properties=species:S:1:pos:R:3:forces:R:3 energy=-1.8523342751115843 pbc="F F F"
Pd       0.00000000       0.00000000       0.00000000       0.00000000       0.00000000     -10.86076546
Pd       0.00000000       0.00000000       1.76727273       0.00000000       0.00000000      10.86076546
2
Properties=species:S:1:pos:R:3:forces:R:3 energy=-2.4415367171931766 pbc="F F F"
Pd       0.00000000       0.00000000       0.00000000       0.00000000       0.00000000      -9.23168468
Pd       0.00000000       0.00000000       1.82606061       0.00000000       0.00000000       9.23168468
2
Properties=species:S:1:pos:R:3:forces:R:3 energy=-2.9408434450483116 pbc="F F F"
Pd       0.00000000       0.00000000       0.00000000       0.00000000       0.00000000      -7.76916742
Pd       0.00000000       0.00000000       1.88484848       0.00000000       0.00000000       7.76916742
2
Properties=species:S:1:pos:R:3:forces:R:3 energy=-3.3563153736129143 pbc="F F F"
Pd       0.00000000       0.00000000       0.00000000       0.00000000       0.00000000      -6.37725639
Pd       0.00000000       0.00000000       1.94363636       0.00000000       0.00000000       6.37725639
2
Properties=species:S:1:pos:R:3:forces:R:3 energy=-3.692441467478798 pbc="F F F"
Pd       0.00000000       0.00000000       0.00000000       0.00000000       0.00000000      -5.07687902
Pd       0.00000000       0.00000000       2.00242424       0.00000000       0.00000000       5.07687902
2
Properties=species:S:1:pos:R:3:forces:R:3 energy=-3.9558246983187013 pbc="F F F"
Pd       0.00000000       0.00000000       0.00000000       0.00000000       0.00000000      -3.90774322
Pd       0.00000000       0.00000000       2.06121212       0.00000000       0.00000000       3.90774322
2
Properties=species:S:1:pos:R:3:forces:R:3 energy=-4.154782566254159 pbc="F F F"
Pd       0.00000000       0.00000000       0.00000000       0.00000000       0.00000000      -2.88486266
Pd       0.00000000       0.00000000       2.12000000       0.00000000       0.00000000       2.88486266
2
Properties=species:S:1:pos:R:3:forces:R:3 energy=-4.297621730675928 pbc="F F F"
Pd       0.00000000       0.00000000       0.00000000       0.00000000       0.00000000      -1.99463785
Pd       0.00000000       0.00000000       2.17878788       0.00000000       0.00000000       1.99463785
2
Properties=species:S:1:pos:R:3:forces:R:3 energy=-4.391432489466107 pbc="F F F"
Pd       0.00000000       0.00000000       0.00000000       0.00000000       0.00000000      -1.21336806
Pd       0.00000000       0.00000000       2.23757576       0.00000000       0.00000000       1.21336806
2
Properties=species:S:1:pos:R:3:forces:R:3 energy=-4.442117872371252 pbc="F F F"
Pd       0.00000000       0.00000000       0.00000000       0.00000000       0.00000000      -0.52627420
Pd       0.00000000       0.00000000       2.29636364       0.00000000       0.00000000       0.52627420
2
Properties=species:S:1:pos:R:3:forces:R:3 energy=-4.455143135360712 pbc="F F F"
Pd       0.00000000       0.00000000       0.00000000       0.00000000       0.00000000       0.06698163
Pd       0.00000000       0.00000000       2.35515152       0.00000000       0.00000000      -0.06698163
2
Properties=species:S:1:pos:R:3:forces:R:3 energy=-4.436221060071371 pbc="F F F"
Pd       0.00000000       0.00000000       0.00000000       0.00000000       0.00000000       0.55939227
Pd       0.00000000       0.00000000       2.41393939       0.00000000       0.00000000      -0.55939227
2
Properties=species:S:1:pos:R:3:forces:R:3 energy=-4.391442320195981 pbc="F F F"
Pd       0.00000000       0.00000000       0.00000000       0.00000000       0.00000000       0.94654250
Pd       0.00000000       0.00000000       2.47272727       0.00000000       0.00000000      -0.94654250
2
Properties=species:S:1:pos:R:3:forces:R:3 energy=-4.326865863899702 pbc="F F F"
Pd       0.00000000       0.00000000       0.00000000       0.00000000       0.00000000       1.23561120
Pd       0.00000000       0.00000000       2.53151515       0.00000000       0.00000000      -1.23561120
2
Properties=species:S:1:pos:R:3:forces:R:3 energy=-4.247611171570405 pbc="F F F"
Pd       0.00000000       0.00000000       0.00000000       0.00000000       0.00000000       1.45096529
Pd       0.00000000       0.00000000       2.59030303       0.00000000       0.00000000      -1.45096529
2
Properties=species:S:1:pos:R:3:forces:R:3 energy=-4.1572595334504445 pbc="F F F"
Pd       0.00000000       0.00000000       0.00000000       0.00000000       0.00000000       1.61403716
Pd       0.00000000       0.00000000       2.64909091       0.00000000       0.00000000      -1.61403716
2
Properties=species:S:1:pos:R:3:forces:R:3 energy=-4.059139753111405 pbc="F F F"
Pd       0.00000000       0.00000000       0.00000000       0.00000000       0.00000000       1.71051168
Pd       0.00000000       0.00000000       2.70787879       0.00000000       0.00000000      -1.71051168
2
Properties=species:S:1:pos:R:3:forces:R:3 energy=-3.957865720983811 pbc="F F F"
Pd       0.00000000       0.00000000       0.00000000       0.00000000       0.00000000       1.72040725
Pd       0.00000000       0.00000000       2.76666667       0.00000000       0.00000000      -1.72040725
2
Properties=species:S:1:pos:R:3:forces:R:3 energy=-3.8583952081175457 pbc="F F F"
Pd       0.00000000       0.00000000       0.00000000       0.00000000       0.00000000       1.65246904
Pd       0.00000000       0.00000000       2.82545455       0.00000000       0.00000000      -1.65246904
2
Properties=species:S:1:pos:R:3:forces:R:3 energy=-3.7646625103351607 pbc="F F F"
Pd       0.00000000       0.00000000       0.00000000       0.00000000       0.00000000       1.52896523
Pd       0.00000000       0.00000000       2.88424242       0.00000000       0.00000000      -1.52896523
2
Properties=species:S:1:pos:R:3:forces:R:3 energy=-3.6792956804157564 pbc="F F F"
Pd       0.00000000       0.00000000       0.00000000       0.00000000       0.00000000       1.37113547
Pd       0.00000000       0.00000000       2.94303030       0.00000000       0.00000000      -1.37113547
2
Properties=species:S:1:pos:R:3:forces:R:3 energy=-3.6037659253807464 pbc="F F F"
Pd       0.00000000       0.00000000       0.00000000       0.00000000       0.00000000       1.19710863
Pd       0.00000000       0.00000000       3.00181818       0.00000000       0.00000000      -1.19710863
2
Properties=species:S:1:pos:R:3:forces:R:3 energy=-3.538561616014561 pbc="F F F"
Pd       0.00000000       0.00000000       0.00000000       0.00000000       0.00000000       1.02215374
Pd       0.00000000       0.00000000       3.06060606       0.00000000       0.00000000      -1.02215374
2
Properties=species:S:1:pos:R:3:forces:R:3 energy=-3.483361182035393 pbc="F F F"
Pd       0.00000000       0.00000000       0.00000000       0.00000000       0.00000000       0.85854864
Pd       0.00000000       0.00000000       3.11939394       0.00000000       0.00000000      -0.85854864
2
Properties=species:S:1:pos:R:3:forces:R:3 energy=-3.43721411058067 pbc="F F F"
Pd       0.00000000       0.00000000       0.00000000       0.00000000       0.00000000       0.71538824
Pd       0.00000000       0.00000000       3.17818182       0.00000000       0.00000000      -0.71538824
2
Properties=species:S:1:pos:R:3:forces:R:3 energy=-3.3987322966522733 pbc="F F F"
Pd       0.00000000       0.00000000       0.00000000       0.00000000       0.00000000       0.59847242
Pd       0.00000000       0.00000000       3.23696970       0.00000000       0.00000000      -0.59847242
2
Properties=species:S:1:pos:R:3:forces:R:3 energy=-3.3662844586367844 pbc="F F F"
Pd       0.00000000       0.00000000       0.00000000       0.00000000       0.00000000       0.51023030
Pd       0.00000000       0.00000000       3.29575758       0.00000000       0.00000000      -0.51023030
2
Properties=species:S:1:pos:R:3:forces:R:3 energy=-3.3381942624808834 pbc="F F F"
Pd       0.00000000       0.00000000       0.00000000       0.00000000       0.00000000       0.44981030
Pd       0.00000000       0.00000000       3.35454545       0.00000000       0.00000000      -0.44981030
2
Properties=species:S:1:pos:R:3:forces:R:3 energy=-3.31292303902196 pbc="F F F"
Pd       0.00000000       0.00000000       0.00000000       0.00000000       0.00000000       0.41353568
Pd       0.00000000       0.00000000       3.41333333       0.00000000       0.00000000      -0.41353568
2
Properties=species:S:1:pos:R:3:forces:R:3 energy=-3.2892092295145723 pbc="F F F"
Pd       0.00000000       0.00000000       0.00000000       0.00000000       0.00000000       0.39578331
Pd       0.00000000       0.00000000       3.47212121       0.00000000       0.00000000      -0.39578331
2
Properties=species:S:1:pos:R:3:forces:R:3 energy=-3.266152560060156 pbc="F F F"
Pd       0.00000000       0.00000000       0.00000000       0.00000000       0.00000000       0.39009142
Pd       0.00000000       0.00000000       3.53090909       0.00000000       0.00000000      -0.39009142
2
Properties=species:S:1:pos:R:3:forces:R:3 energy=-3.243230469482311 pbc="F F F"
Pd       0.00000000       0.00000000       0.00000000       0.00000000       0.00000000       0.39021903
Pd       0.00000000       0.00000000       3.58969697       0.00000000       0.00000000      -0.39021903
2
Properties=species:S:1:pos:R:3:forces:R:3 energy=-3.2202610784193078 pbc="F F F"
Pd       0.00000000       0.00000000       0.00000000       0.00000000       0.00000000       0.39095297
Pd       0.00000000       0.00000000       3.64848485       0.00000000       0.00000000      -0.39095297
2
Properties=species:S:1:pos:R:3:forces:R:3 energy=-3.1973259377047207 pbc="F F F"
Pd       0.00000000       0.00000000       0.00000000       0.00000000       0.00000000       0.38858438
Pd       0.00000000       0.00000000       3.70727273       0.00000000       0.00000000      -0.38858438
2
Properties=species:S:1:pos:R:3:forces:R:3 energy=-3.1746746672714288 pbc="F F F"
Pd       0.00000000       0.00000000       0.00000000       0.00000000       0.00000000       0.38106948
Pd       0.00000000       0.00000000       3.76606061       0.00000000       0.00000000      -0.38106948
2
Properties=species:S:1:pos:R:3:forces:R:3 energy=-3.1526333654033767 pbc="F F F"
Pd       0.00000000       0.00000000       0.00000000       0.00000000       0.00000000       0.36788696
Pd       0.00000000       0.00000000       3.82484848       0.00000000       0.00000000      -0.36788696
2
Properties=species:S:1:pos:R:3:forces:R:3 energy=-3.131519381597142 pbc="F F F"
Pd       0.00000000       0.00000000       0.00000000       0.00000000       0.00000000       0.34966794
Pd       0.00000000       0.00000000       3.88363636       0.00000000       0.00000000      -0.34966794
2
Properties=species:S:1:pos:R:3:forces:R:3 energy=-3.111594065333762 pbc="F F F"
Pd       0.00000000       0.00000000       0.00000000       0.00000000       0.00000000       0.32770467
Pd       0.00000000       0.00000000       3.94242424       0.00000000       0.00000000      -0.32770467
2
Properties=species:S:1:pos:R:3:forces:R:3 energy=-3.093034048143291 pbc="F F F"
Pd       0.00000000       0.00000000       0.00000000       0.00000000       0.00000000       0.30346262
Pd       0.00000000       0.00000000       4.00121212       0.00000000       0.00000000      -0.30346262
2
Properties=species:S:1:pos:R:3:forces:R:3 energy=-3.075934199662411 pbc="F F F"
Pd       0.00000000       0.00000000       0.00000000       0.00000000       0.00000000       0.27820516
Pd       0.00000000       0.00000000       4.06000000       0.00000000       0.00000000      -0.27820516
2
Properties=species:S:1:pos:R:3:forces:R:3 energy=-3.0603266037501933 pbc="F F F"
Pd       0.00000000       0.00000000       0.00000000       0.00000000       0.00000000       0.25279769
Pd       0.00000000       0.00000000       4.11878788       0.00000000       0.00000000      -0.25279769
2
Properties=species:S:1:pos:R:3:forces:R:3 energy=-3.046205449054988 pbc="F F F"
Pd       0.00000000       0.00000000       0.00000000       0.00000000       0.00000000       0.22767159
Pd       0.00000000       0.00000000       4.17757576       0.00000000       0.00000000      -0.22767159
2
Properties=species:S:1:pos:R:3:forces:R:3 energy=-3.033550089924251 pbc="F F F"
Pd       0.00000000       0.00000000       0.00000000       0.00000000       0.00000000       0.20292944
Pd       0.00000000       0.00000000       4.23636364       0.00000000       0.00000000      -0.20292944
2
Properties=species:S:1:pos:R:3:forces:R:3 energy=-3.022339237477693 pbc="F F F"
Pd       0.00000000       0.00000000       0.00000000       0.00000000       0.00000000       0.17851081
Pd       0.00000000       0.00000000       4.29515152       0.00000000       0.00000000      -0.17851081
2
Properties=species:S:1:pos:R:3:forces:R:3 energy=-3.012556354535577 pbc="F F F"
Pd       0.00000000       0.00000000       0.00000000       0.00000000       0.00000000       0.15437081
Pd       0.00000000       0.00000000       4.35393939       0.00000000       0.00000000      -0.15437081
2
Properties=species:S:1:pos:R:3:forces:R:3 energy=-3.004182141929621 pbc="F F F"
Pd       0.00000000       0.00000000       0.00000000       0.00000000       0.00000000       0.13059804
Pd       0.00000000       0.00000000       4.41272727       0.00000000       0.00000000      -0.13059804
2
Properties=species:S:1:pos:R:3:forces:R:3 energy=-2.997188279431322 pbc="F F F"
Pd       0.00000000       0.00000000       0.00000000       0.00000000       0.00000000       0.10748287
Pd       0.00000000       0.00000000       4.47151515       0.00000000       0.00000000      -0.10748287
2
Properties=species:S:1:pos:R:3:forces:R:3 energy=-2.991522504415876 pbc="F F F"
Pd       0.00000000       0.00000000       0.00000000       0.00000000       0.00000000       0.08550067
Pd       0.00000000       0.00000000       4.53030303       0.00000000       0.00000000      -0.08550067
2
Properties=species:S:1:pos:R:3:forces:R:3 energy=-2.987101708058768 pbc="F F F"
Pd       0.00000000       0.00000000       0.00000000       0.00000000       0.00000000       0.06523994
Pd       0.00000000       0.00000000       4.58909091       0.00000000       0.00000000      -0.06523994
2
Properties=species:S:1:pos:R:3:forces:R:3 energy=-2.983806617267123 pbc="F F F"
Pd       0.00000000       0.00000000       0.00000000       0.00000000       0.00000000       0.04729923
Pd       0.00000000       0.00000000       4.64787879       0.00000000       0.00000000      -0.04729923
2
Properties=species:S:1:pos:R:3:forces:R:3 energy=-2.9814850723511936 pbc="F F F"
Pd       0.00000000       0.00000000       0.00000000       0.00000000       0.00000000       0.03217418
Pd       0.00000000       0.00000000       4.70666667       0.00000000       0.00000000      -0.03217418
2
Properties=species:S:1:pos:R:3:forces:R:3 energy=-2.9799621491425508 pbc="F F F"
Pd       0.00000000       0.00000000       0.00000000       0.00000000       0.00000000       0.02017096
Pd       0.00000000       0.00000000       4.76545455       0.00000000       0.00000000      -0.02017096
2
Properties=species:S:1:pos:R:3:forces:R:3 energy=-2.9790511389200143 pbc="F F F"
Pd       0.00000000       0.00000000       0.00000000       0.00000000       0.00000000       0.01135204
Pd       0.00000000       0.00000000       4.82424242       0.00000000       0.00000000      -0.01135204
2
Properties=species:S:1:pos:R:3:forces:R:3 energy=-2.9785680792716858 pbc="F F F"
Pd       0.00000000       0.00000000       0.00000000       0.00000000       0.00000000       0.00554999
Pd       0.00000000       0.00000000       4.88303030       0.00000000       0.00000000      -0.00554999
2
Properties=species:S:1:pos:R:3:forces:R:3 energy=-2.978346253278768 pbc="F F F"
Pd       0.00000000       0.00000000       0.00000000       0.00000000       0.00000000       0.00241288
Pd       0.00000000       0.00000000       4.94181818       0.00000000       0.00000000      -0.00241288
2
Properties=species:S:1:pos:R:3:forces:R:3 energy=-2.9782412755012753 pbc="F F F"
Pd       0.00000000       0.00000000       0.00000000       0.00000000       0.00000000       0.00148737
Pd       0.00000000       0.00000000       5.00060606       0.00000000       0.00000000      -0.00148737
2
Properties=species:S:1:pos:R:3:forces:R:3 energy=-2.9781376116430485 pbc="F F F"
Pd       0.00000000       0.00000000       0.00000000       0.00000000       0.00000000       0.00228055
Pd       0.00000000       0.00000000       5.05939394       0.00000000       0.00000000      -0.00228055
2
Properties=species:S:1:pos:R:3:forces:R:3 energy=-2.977949033214157 pbc="F F F"
Pd       0.00000000       0.00000000       0.00000000       0.00000000       0.00000000       0.00430680
Pd       0.00000000       0.00000000       5.11818182       0.00000000       0.00000000      -0.00430680
2
Properties=species:S:1:pos:R:3:forces:R:3 energy=-2.9776161168876802 pbc="F F F"
Pd       0.00000000       0.00000000       0.00000000       0.00000000       0.00000000       0.00710486
Pd       0.00000000       0.00000000       5.17696970       0.00000000       0.00000000      -0.00710486
2
Properties=species:S:1:pos:R:3:forces:R:3 energy=-2.9771070025210467 pbc="F F F"
Pd       0.00000000       0.00000000       0.00000000       0.00000000       0.00000000       0.01024161
Pd       0.00000000       0.00000000       5.23575758       0.00000000       0.00000000      -0.01024161
2
Properties=species:S:1:pos:R:3:forces:R:3 energy=-2.9764132061597373 pbc="F F F"
Pd       0.00000000       0.00000000       0.00000000       0.00000000       0.00000000       0.01331983
Pd       0.00000000       0.00000000       5.29454545       0.00000000       0.00000000      -0.01331983
2
Properties=species:S:1:pos:R:3:forces:R:3 energy=-2.975548723383771 pbc="F F F"
Pd       0.00000000       0.00000000       0.00000000       0.00000000       0.00000000       0.01599674
Pd       0.00000000       0.00000000       5.35333333       0.00000000       0.00000000      -0.01599674
2
Properties=species:S:1:pos:R:3:forces:R:3 energy=-2.9745452989499865 pbc="F F F"
Pd       0.00000000       0.00000000       0.00000000       0.00000000       0.00000000       0.01801172
Pd       0.00000000       0.00000000       5.41212121       0.00000000       0.00000000      -0.01801172
2
Properties=species:S:1:pos:R:3:forces:R:3 energy=-2.973447063541966 pbc="F F F"
Pd       0.00000000       0.00000000       0.00000000       0.00000000       0.00000000       0.01921303
Pd       0.00000000       0.00000000       5.47090909       0.00000000       0.00000000      -0.01921303
2
Properties=species:S:1:pos:R:3:forces:R:3 energy=-2.9723029138789685 pbc="F F F"
Pd       0.00000000       0.00000000       0.00000000       0.00000000       0.00000000       0.01956942
Pd       0.00000000       0.00000000       5.52969697       0.00000000       0.00000000      -0.01956942
2
Properties=species:S:1:pos:R:3:forces:R:3 energy=-2.971161098780699 pbc="F F F"
Pd       0.00000000       0.00000000       0.00000000       0.00000000       0.00000000       0.01916091
Pd       0.00000000       0.00000000       5.58848485       0.00000000       0.00000000      -0.01916091
2
Properties=species:S:1:pos:R:3:forces:R:3 energy=-2.970061915306467 pbc="F F F"
Pd       0.00000000       0.00000000       0.00000000       0.00000000       0.00000000       0.01815230
Pd       0.00000000       0.00000000       5.64727273       0.00000000       0.00000000      -0.01815230
2
Properties=species:S:1:pos:R:3:forces:R:3 energy=-2.969034572883699 pbc="F F F"
Pd       0.00000000       0.00000000       0.00000000       0.00000000       0.00000000       0.01675403
Pd       0.00000000       0.00000000       5.70606061       0.00000000       0.00000000      -0.01675403
2
Properties=species:S:1:pos:R:3:forces:R:3 energy=-2.968095129904106 pbc="F F F"
Pd       0.00000000       0.00000000       0.00000000       0.00000000       0.00000000       0.01518464
Pd       0.00000000       0.00000000       5.76484848       0.00000000       0.00000000      -0.01518464
2
Properties=species:S:1:pos:R:3:forces:R:3 energy=-2.9672487012634283 pbc="F F F"
Pd       0.00000000       0.00000000       0.00000000       0.00000000       0.00000000       0.01363698
Pd       0.00000000       0.00000000       5.82363636       0.00000000       0.00000000      -0.01363698
2
Properties=species:S:1:pos:R:3:forces:R:3 energy=-2.966488690836629 pbc="F F F"
Pd       0.00000000       0.00000000       0.00000000       0.00000000       0.00000000       0.01225897
Pd       0.00000000       0.00000000       5.88242424       0.00000000       0.00000000      -0.01225897
2
Properties=species:S:1:pos:R:3:forces:R:3 energy=-2.9658021087545894 pbc="F F F"
Pd       0.00000000       0.00000000       0.00000000       0.00000000       0.00000000       0.01114588
Pd       0.00000000       0.00000000       5.94121212       0.00000000       0.00000000      -0.01114588
2
Properties=species:S:1:pos:R:3:forces:R:3 energy=-2.965171969053147 pbc="F F F"
Pd       0.00000000       0.00000000       0.00000000       0.00000000       0.00000000       0.01034850
Pd       0.00000000       0.00000000       6.00000000       0.00000000       0.00000000      -0.01034850
