2
Properties=species:S:1:pos:R:3:forces:R:3 energy=10898.212021382402 pbc="F F F"
Pr       0.00000000       0.00000000       0.00000000       0.00000000       0.00000000 -195013.26562500
Pr       0.00000000       0.00000000       0.18000000       0.00000000       0.00000000  195013.26562500
2
Properties=species:S:1:pos:R:3:forces:R:3 energy=4019.634872944902 pbc="F F F"
Pr       0.00000000       0.00000000       0.00000000       0.00000000       0.00000000  -65963.95312500
Pr       0.00000000       0.00000000       0.23878788       0.00000000       0.00000000   65963.95312500
2
Properties=species:S:1:pos:R:3:forces:R:3 energy=1510.747910054277 pbc="F F F"
Pr       0.00000000       0.00000000       0.00000000       0.00000000       0.00000000  -26276.27734375
Pr       0.00000000       0.00000000       0.29757576       0.00000000       0.00000000   26276.27734375
2
Properties=species:S:1:pos:R:3:forces:R:3 energy=463.5164342368702 pbc="F F F"
Pr       0.00000000       0.00000000       0.00000000       0.00000000       0.00000000  -11577.45703125
Pr       0.00000000       0.00000000       0.35636364       0.00000000       0.00000000   11577.45703125
2
Properties=species:S:1:pos:R:3:forces:R:3 energy=-12.89525838245352 pbc="F F F"
Pr       0.00000000       0.00000000       0.00000000       0.00000000       0.00000000   -5466.62451172
Pr       0.00000000       0.00000000       0.41515152       0.00000000       0.00000000    5466.62451172
2
Properties=species:S:1:pos:R:3:forces:R:3 energy=-243.21946664203602 pbc="F F F"
Pr       0.00000000       0.00000000       0.00000000       0.00000000       0.00000000   -2715.16357422
Pr       0.00000000       0.00000000       0.47393939       0.00000000       0.00000000    2715.16357422
2
Properties=species:S:1:pos:R:3:forces:R:3 energy=-359.4674219389591 pbc="F F F"
Pr       0.00000000       0.00000000       0.00000000       0.00000000       0.00000000   -1392.32727051
Pr       0.00000000       0.00000000       0.53272727       0.00000000       0.00000000    1392.32727051
2
Properties=species:S:1:pos:R:3:forces:R:3 energy=-419.24598636674153 pbc="F F F"
Pr       0.00000000       0.00000000       0.00000000       0.00000000       0.00000000    -711.61260986
Pr       0.00000000       0.00000000       0.59151515       0.00000000       0.00000000     711.61260986
2
Properties=species:S:1:pos:R:3:forces:R:3 energy=-448.8544152711345 pbc="F F F"
Pr       0.00000000       0.00000000       0.00000000       0.00000000       0.00000000    -328.32617188
Pr       0.00000000       0.00000000       0.65030303       0.00000000       0.00000000     328.32617188
2
Properties=species:S:1:pos:R:3:forces:R:3 energy=-460.46928335916925 pbc="F F F"
Pr       0.00000000       0.00000000       0.00000000       0.00000000       0.00000000     -81.16403961
Pr       0.00000000       0.00000000       0.70909091       0.00000000       0.00000000      81.16403961
2
Properties=species:S:1:pos:R:3:forces:R:3 energy=-459.46049416995635 pbc="F F F"
Pr       0.00000000       0.00000000       0.00000000       0.00000000       0.00000000     110.63144684
Pr       0.00000000       0.00000000       0.76787879       0.00000000       0.00000000    -110.63144684
2
Properties=species:S:1:pos:R:3:forces:R:3 energy=-447.7022542464646 pbc="F F F"
Pr       0.00000000       0.00000000       0.00000000       0.00000000       0.00000000     289.44876099
Pr       0.00000000       0.00000000       0.82666667       0.00000000       0.00000000    -289.44876099
2
Properties=species:S:1:pos:R:3:forces:R:3 energy=-425.2764727430388 pbc="F F F"
Pr       0.00000000       0.00000000       0.00000000       0.00000000       0.00000000     475.40881348
Pr       0.00000000       0.00000000       0.88545455       0.00000000       0.00000000    -475.40881348
2
Properties=species:S:1:pos:R:3:forces:R:3 energy=-391.6190932251808 pbc="F F F"
Pr       0.00000000       0.00000000       0.00000000       0.00000000       0.00000000     670.25958252
Pr       0.00000000       0.00000000       0.94424242       0.00000000       0.00000000    -670.25958252
2
Properties=species:S:1:pos:R:3:forces:R:3 energy=-346.62373140287553 pbc="F F F"
Pr       0.00000000       0.00000000       0.00000000       0.00000000       0.00000000     856.61010742
Pr       0.00000000       0.00000000       1.00303030       0.00000000       0.00000000    -856.61010742
2
Properties=species:S:1:pos:R:3:forces:R:3 energy=-291.7487612488754 pbc="F F F"
Pr       0.00000000       0.00000000       0.00000000       0.00000000       0.00000000     999.50555420
Pr       0.00000000       0.00000000       1.06181818       0.00000000       0.00000000    -999.50555420
2
Properties=species:S:1:pos:R:3:forces:R:3 energy=-230.78522885507326 pbc="F F F"
Pr       0.00000000       0.00000000       0.00000000       0.00000000       0.00000000    1057.31799316
Pr       0.00000000       0.00000000       1.12060606       0.00000000       0.00000000   -1057.31799316
2
Properties=species:S:1:pos:R:3:forces:R:3 energy=-170.31080141978347 pbc="F F F"
Pr       0.00000000       0.00000000       0.00000000       0.00000000       0.00000000     952.55651855
Pr       0.00000000       0.00000000       1.17939394       0.00000000       0.00000000    -952.55651855
2
Properties=species:S:1:pos:R:3:forces:R:3 energy=-117.61641055596712 pbc="F F F"
Pr       0.00000000       0.00000000       0.00000000       0.00000000       0.00000000     815.39428711
Pr       0.00000000       0.00000000       1.23818182       0.00000000       0.00000000    -815.39428711
2
Properties=species:S:1:pos:R:3:forces:R:3 energy=-75.00531699081914 pbc="F F F"
Pr       0.00000000       0.00000000       0.00000000       0.00000000       0.00000000     635.22192383
Pr       0.00000000       0.00000000       1.29696970       0.00000000       0.00000000    -635.22192383
2
Properties=species:S:1:pos:R:3:forces:R:3 energy=-43.016403882882905 pbc="F F F"
Pr       0.00000000       0.00000000       0.00000000       0.00000000       0.00000000     452.85800171
Pr       0.00000000       0.00000000       1.35575758       0.00000000       0.00000000    -452.85800171
2
Properties=species:S:1:pos:R:3:forces:R:3 energy=-20.166854383935945 pbc="F F F"
Pr       0.00000000       0.00000000       0.00000000       0.00000000       0.00000000     415.87057495
Pr       0.00000000       0.00000000       1.41454545       0.00000000       0.00000000    -415.87057495
2
Properties=species:S:1:pos:R:3:forces:R:3 energy=-0.6700042516331464 pbc="F F F"
Pr       0.00000000       0.00000000       0.00000000       0.00000000       0.00000000     309.00109863
Pr       0.00000000       0.00000000       1.47333333       0.00000000       0.00000000    -309.00109863
2
Properties=species:S:1:pos:R:3:forces:R:3 energy=16.76853122679909 pbc="F F F"
Pr       0.00000000       0.00000000       0.00000000       0.00000000       0.00000000     215.82456970
Pr       0.00000000       0.00000000       1.53212121       0.00000000       0.00000000    -215.82456970
2
Properties=species:S:1:pos:R:3:forces:R:3 energy=24.34834235370962 pbc="F F F"
Pr       0.00000000       0.00000000       0.00000000       0.00000000       0.00000000      46.52568817
Pr       0.00000000       0.00000000       1.59090909       0.00000000       0.00000000     -46.52568817
2
Properties=species:S:1:pos:R:3:forces:R:3 energy=23.928616275432994 pbc="F F F"
Pr       0.00000000       0.00000000       0.00000000       0.00000000       0.00000000     -43.84951019
Pr       0.00000000       0.00000000       1.64969697       0.00000000       0.00000000      43.84951019
2
Properties=species:S:1:pos:R:3:forces:R:3 energy=20.19770959424596 pbc="F F F"
Pr       0.00000000       0.00000000       0.00000000       0.00000000       0.00000000     -78.57764435
Pr       0.00000000       0.00000000       1.70848485       0.00000000       0.00000000      78.57764435
2
Properties=species:S:1:pos:R:3:forces:R:3 energy=15.101622688099004 pbc="F F F"
Pr       0.00000000       0.00000000       0.00000000       0.00000000       0.00000000     -91.94958496
Pr       0.00000000       0.00000000       1.76727273       0.00000000       0.00000000      91.94958496
2
Properties=species:S:1:pos:R:3:forces:R:3 energy=9.668794365861839 pbc="F F F"
Pr       0.00000000       0.00000000       0.00000000       0.00000000       0.00000000     -90.68893433
Pr       0.00000000       0.00000000       1.82606061       0.00000000       0.00000000      90.68893433
2
Properties=species:S:1:pos:R:3:forces:R:3 energy=4.710626286161603 pbc="F F F"
Pr       0.00000000       0.00000000       0.00000000       0.00000000       0.00000000     -75.53517914
Pr       0.00000000       0.00000000       1.88484848       0.00000000       0.00000000      75.53517914
2
Properties=species:S:1:pos:R:3:forces:R:3 energy=1.0379327329455468 pbc="F F F"
Pr       0.00000000       0.00000000       0.00000000       0.00000000       0.00000000     -48.17746353
Pr       0.00000000       0.00000000       1.94363636       0.00000000       0.00000000      48.17746353
2
Properties=species:S:1:pos:R:3:forces:R:3 energy=-0.9819815073484877 pbc="F F F"
Pr       0.00000000       0.00000000       0.00000000       0.00000000       0.00000000     -22.12170982
Pr       0.00000000       0.00000000       2.00242424       0.00000000       0.00000000      22.12170982
2
Properties=species:S:1:pos:R:3:forces:R:3 energy=-1.809140718366598 pbc="F F F"
Pr       0.00000000       0.00000000       0.00000000       0.00000000       0.00000000      -8.04052925
Pr       0.00000000       0.00000000       2.06121212       0.00000000       0.00000000       8.04052925
2
Properties=species:S:1:pos:R:3:forces:R:3 energy=-2.104734225811512 pbc="F F F"
Pr       0.00000000       0.00000000       0.00000000       0.00000000       0.00000000      -2.98955297
Pr       0.00000000       0.00000000       2.12000000       0.00000000       0.00000000       2.98955297
2
Properties=species:S:1:pos:R:3:forces:R:3 energy=-2.229315477362765 pbc="F F F"
Pr       0.00000000       0.00000000       0.00000000       0.00000000       0.00000000      -1.56237948
Pr       0.00000000       0.00000000       2.17878788       0.00000000       0.00000000       1.56237948
2
Properties=species:S:1:pos:R:3:forces:R:3 energy=-2.3089612225046188 pbc="F F F"
Pr       0.00000000       0.00000000       0.00000000       0.00000000       0.00000000      -1.23595691
Pr       0.00000000       0.00000000       2.23757576       0.00000000       0.00000000       1.23595691
2
Properties=species:S:1:pos:R:3:forces:R:3 energy=-2.380211442480908 pbc="F F F"
Pr       0.00000000       0.00000000       0.00000000       0.00000000       0.00000000      -1.20943308
Pr       0.00000000       0.00000000       2.29636364       0.00000000       0.00000000       1.20943308
2
Properties=species:S:1:pos:R:3:forces:R:3 energy=-2.4521236647752778 pbc="F F F"
Pr       0.00000000       0.00000000       0.00000000       0.00000000       0.00000000      -1.23661554
Pr       0.00000000       0.00000000       2.35515152       0.00000000       0.00000000       1.23661554
2
Properties=species:S:1:pos:R:3:forces:R:3 energy=-2.5250664521607287 pbc="F F F"
Pr       0.00000000       0.00000000       0.00000000       0.00000000       0.00000000      -1.23800182
Pr       0.00000000       0.00000000       2.41393939       0.00000000       0.00000000       1.23800182
2
Properties=species:S:1:pos:R:3:forces:R:3 energy=-2.5967825748995974 pbc="F F F"
Pr       0.00000000       0.00000000       0.00000000       0.00000000       0.00000000      -1.19425189
Pr       0.00000000       0.00000000       2.47272727       0.00000000       0.00000000       1.19425189
2
Properties=species:S:1:pos:R:3:forces:R:3 energy=-2.664667564432738 pbc="F F F"
Pr       0.00000000       0.00000000       0.00000000       0.00000000       0.00000000      -1.10918558
Pr       0.00000000       0.00000000       2.53151515       0.00000000       0.00000000       1.10918558
2
Properties=species:S:1:pos:R:3:forces:R:3 energy=-2.726616175363068 pbc="F F F"
Pr       0.00000000       0.00000000       0.00000000       0.00000000       0.00000000      -0.99453968
Pr       0.00000000       0.00000000       2.59030303       0.00000000       0.00000000       0.99453968
2
Properties=species:S:1:pos:R:3:forces:R:3 energy=-2.7812873675313514 pbc="F F F"
Pr       0.00000000       0.00000000       0.00000000       0.00000000       0.00000000      -0.86382985
Pr       0.00000000       0.00000000       2.64909091       0.00000000       0.00000000       0.86382985
2
Properties=species:S:1:pos:R:3:forces:R:3 energy=-2.8281109080445885 pbc="F F F"
Pr       0.00000000       0.00000000       0.00000000       0.00000000       0.00000000      -0.72937024
Pr       0.00000000       0.00000000       2.70787879       0.00000000       0.00000000       0.72937024
2
Properties=species:S:1:pos:R:3:forces:R:3 energy=-2.8671464889024385 pbc="F F F"
Pr       0.00000000       0.00000000       0.00000000       0.00000000       0.00000000      -0.60002714
Pr       0.00000000       0.00000000       2.76666667       0.00000000       0.00000000       0.60002714
2
Properties=species:S:1:pos:R:3:forces:R:3 energy=-2.8988362508480163 pbc="F F F"
Pr       0.00000000       0.00000000       0.00000000       0.00000000       0.00000000      -0.47959208
Pr       0.00000000       0.00000000       2.82545455       0.00000000       0.00000000       0.47959208
2
Properties=species:S:1:pos:R:3:forces:R:3 energy=-2.9236757253789643 pbc="F F F"
Pr       0.00000000       0.00000000       0.00000000       0.00000000       0.00000000      -0.36620960
Pr       0.00000000       0.00000000       2.88424242       0.00000000       0.00000000       0.36620960
2
Properties=species:S:1:pos:R:3:forces:R:3 energy=-2.9419028148792226 pbc="F F F"
Pr       0.00000000       0.00000000       0.00000000       0.00000000       0.00000000      -0.25320116
Pr       0.00000000       0.00000000       2.94303030       0.00000000       0.00000000       0.25320116
2
Properties=species:S:1:pos:R:3:forces:R:3 energy=-2.953271541386946 pbc="F F F"
Pr       0.00000000       0.00000000       0.00000000       0.00000000       0.00000000      -0.13125820
Pr       0.00000000       0.00000000       3.00181818       0.00000000       0.00000000       0.13125820
2
Properties=species:S:1:pos:R:3:forces:R:3 energy=-2.956983097611795 pbc="F F F"
Pr       0.00000000       0.00000000       0.00000000       0.00000000       0.00000000       0.00852785
Pr       0.00000000       0.00000000       3.06060606       0.00000000       0.00000000      -0.00852785
2
Properties=species:S:1:pos:R:3:forces:R:3 energy=-2.9518076511503764 pbc="F F F"
Pr       0.00000000       0.00000000       0.00000000       0.00000000       0.00000000       0.17166702
Pr       0.00000000       0.00000000       3.11939394       0.00000000       0.00000000      -0.17166702
2
Properties=species:S:1:pos:R:3:forces:R:3 energy=-2.93633375566256 pbc="F F F"
Pr       0.00000000       0.00000000       0.00000000       0.00000000       0.00000000       0.35837665
Pr       0.00000000       0.00000000       3.17818182       0.00000000       0.00000000      -0.35837665
2
Properties=species:S:1:pos:R:3:forces:R:3 energy=-2.9093073717555775 pbc="F F F"
Pr       0.00000000       0.00000000       0.00000000       0.00000000       0.00000000       0.56354594
Pr       0.00000000       0.00000000       3.23696970       0.00000000       0.00000000      -0.56354594
2
Properties=species:S:1:pos:R:3:forces:R:3 energy=-2.8698839594493437 pbc="F F F"
Pr       0.00000000       0.00000000       0.00000000       0.00000000       0.00000000       0.77842134
Pr       0.00000000       0.00000000       3.29575758       0.00000000       0.00000000      -0.77842134
2
Properties=species:S:1:pos:R:3:forces:R:3 energy=-2.817794006362701 pbc="F F F"
Pr       0.00000000       0.00000000       0.00000000       0.00000000       0.00000000       0.99275738
Pr       0.00000000       0.00000000       3.35454545       0.00000000       0.00000000      -0.99275738
2
Properties=species:S:1:pos:R:3:forces:R:3 energy=-2.7533741591769725 pbc="F F F"
Pr       0.00000000       0.00000000       0.00000000       0.00000000       0.00000000       1.19613981
Pr       0.00000000       0.00000000       3.41333333       0.00000000       0.00000000      -1.19613981
2
Properties=species:S:1:pos:R:3:forces:R:3 energy=-2.6775758067048097 pbc="F F F"
Pr       0.00000000       0.00000000       0.00000000       0.00000000       0.00000000       1.37813818
Pr       0.00000000       0.00000000       3.47212121       0.00000000       0.00000000      -1.37813818
2
Properties=species:S:1:pos:R:3:forces:R:3 energy=-2.5919633602749843 pbc="F F F"
Pr       0.00000000       0.00000000       0.00000000       0.00000000       0.00000000       1.52832174
Pr       0.00000000       0.00000000       3.53090909       0.00000000       0.00000000      -1.52832174
2
Properties=species:S:1:pos:R:3:forces:R:3 energy=-2.498695281616369 pbc="F F F"
Pr       0.00000000       0.00000000       0.00000000       0.00000000       0.00000000       1.63711894
Pr       0.00000000       0.00000000       3.58969697       0.00000000       0.00000000      -1.63711894
2
Properties=species:S:1:pos:R:3:forces:R:3 energy=-2.4004246749817404 pbc="F F F"
Pr       0.00000000       0.00000000       0.00000000       0.00000000       0.00000000       1.69774687
Pr       0.00000000       0.00000000       3.64848485       0.00000000       0.00000000      -1.69774687
2
Properties=species:S:1:pos:R:3:forces:R:3 energy=-2.3000676940084523 pbc="F F F"
Pr       0.00000000       0.00000000       0.00000000       0.00000000       0.00000000       1.70827878
Pr       0.00000000       0.00000000       3.70727273       0.00000000       0.00000000      -1.70827878
2
Properties=species:S:1:pos:R:3:forces:R:3 energy=-2.2004775371576866 pbc="F F F"
Pr       0.00000000       0.00000000       0.00000000       0.00000000       0.00000000       1.67275381
Pr       0.00000000       0.00000000       3.76606061       0.00000000       0.00000000      -1.67275381
2
Properties=species:S:1:pos:R:3:forces:R:3 energy=-2.1041121480680327 pbc="F F F"
Pr       0.00000000       0.00000000       0.00000000       0.00000000       0.00000000       1.60061479
Pr       0.00000000       0.00000000       3.82484848       0.00000000       0.00000000      -1.60061479
2
Properties=species:S:1:pos:R:3:forces:R:3 energy=-2.0127536527407317 pbc="F F F"
Pr       0.00000000       0.00000000       0.00000000       0.00000000       0.00000000       1.50452745
Pr       0.00000000       0.00000000       3.88363636       0.00000000       0.00000000      -1.50452745
2
Properties=species:S:1:pos:R:3:forces:R:3 energy=-1.9274270738113959 pbc="F F F"
Pr       0.00000000       0.00000000       0.00000000       0.00000000       0.00000000       1.39754796
Pr       0.00000000       0.00000000       3.94242424       0.00000000       0.00000000      -1.39754796
2
Properties=species:S:1:pos:R:3:forces:R:3 energy=-1.8484352133543842 pbc="F F F"
Pr       0.00000000       0.00000000       0.00000000       0.00000000       0.00000000       1.29055047
Pr       0.00000000       0.00000000       4.00121212       0.00000000       0.00000000      -1.29055047
2
Properties=species:S:1:pos:R:3:forces:R:3 energy=-1.7755449643310819 pbc="F F F"
Pr       0.00000000       0.00000000       0.00000000       0.00000000       0.00000000       1.19083309
Pr       0.00000000       0.00000000       4.06000000       0.00000000       0.00000000      -1.19083309
2
Properties=species:S:1:pos:R:3:forces:R:3 energy=-1.7082059986156872 pbc="F F F"
Pr       0.00000000       0.00000000       0.00000000       0.00000000       0.00000000       1.10204172
Pr       0.00000000       0.00000000       4.11878788       0.00000000       0.00000000      -1.10204172
2
Properties=species:S:1:pos:R:3:forces:R:3 energy=-1.6457403351081747 pbc="F F F"
Pr       0.00000000       0.00000000       0.00000000       0.00000000       0.00000000       1.02498007
Pr       0.00000000       0.00000000       4.17757576       0.00000000       0.00000000      -1.02498007
2
Properties=species:S:1:pos:R:3:forces:R:3 energy=-1.5874789587478124 pbc="F F F"
Pr       0.00000000       0.00000000       0.00000000       0.00000000       0.00000000       0.95878965
Pr       0.00000000       0.00000000       4.23636364       0.00000000       0.00000000      -0.95878965
2
Properties=species:S:1:pos:R:3:forces:R:3 energy=-1.5328255998189757 pbc="F F F"
Pr       0.00000000       0.00000000       0.00000000       0.00000000       0.00000000       0.90194649
Pr       0.00000000       0.00000000       4.29515152       0.00000000       0.00000000      -0.90194649
2
Properties=species:S:1:pos:R:3:forces:R:3 energy=-1.4812798732246084 pbc="F F F"
Pr       0.00000000       0.00000000       0.00000000       0.00000000       0.00000000       0.85291010
Pr       0.00000000       0.00000000       4.35393939       0.00000000       0.00000000      -0.85291010
2
Properties=species:S:1:pos:R:3:forces:R:3 energy=-1.43241714995527 pbc="F F F"
Pr       0.00000000       0.00000000       0.00000000       0.00000000       0.00000000       0.81041688
Pr       0.00000000       0.00000000       4.41272727       0.00000000       0.00000000      -0.81041688
2
Properties=species:S:1:pos:R:3:forces:R:3 energy=-1.3858824417374072 pbc="F F F"
Pr       0.00000000       0.00000000       0.00000000       0.00000000       0.00000000       0.77360028
Pr       0.00000000       0.00000000       4.47151515       0.00000000       0.00000000      -0.77360028
2
Properties=species:S:1:pos:R:3:forces:R:3 energy=-1.3413579329250365 pbc="F F F"
Pr       0.00000000       0.00000000       0.00000000       0.00000000       0.00000000       0.74198771
Pr       0.00000000       0.00000000       4.53030303       0.00000000       0.00000000      -0.74198771
2
Properties=species:S:1:pos:R:3:forces:R:3 energy=-1.2985447719887147 pbc="F F F"
Pr       0.00000000       0.00000000       0.00000000       0.00000000       0.00000000       0.71540022
Pr       0.00000000       0.00000000       4.58909091       0.00000000       0.00000000      -0.71540022
2
Properties=species:S:1:pos:R:3:forces:R:3 energy=-1.2571470491214871 pbc="F F F"
Pr       0.00000000       0.00000000       0.00000000       0.00000000       0.00000000       0.69382215
Pr       0.00000000       0.00000000       4.64787879       0.00000000       0.00000000      -0.69382215
2
Properties=species:S:1:pos:R:3:forces:R:3 energy=-1.2168705914747038 pbc="F F F"
Pr       0.00000000       0.00000000       0.00000000       0.00000000       0.00000000       0.67717576
Pr       0.00000000       0.00000000       4.70666667       0.00000000       0.00000000      -0.67717576
2
Properties=species:S:1:pos:R:3:forces:R:3 energy=-1.1774357819084451 pbc="F F F"
Pr       0.00000000       0.00000000       0.00000000       0.00000000       0.00000000       0.66516322
Pr       0.00000000       0.00000000       4.76545455       0.00000000       0.00000000      -0.66516322
2
Properties=species:S:1:pos:R:3:forces:R:3 energy=-1.1385848941146264 pbc="F F F"
Pr       0.00000000       0.00000000       0.00000000       0.00000000       0.00000000       0.65711129
Pr       0.00000000       0.00000000       4.82424242       0.00000000       0.00000000      -0.65711129
2
Properties=species:S:1:pos:R:3:forces:R:3 energy=-1.1001219211909974 pbc="F F F"
Pr       0.00000000       0.00000000       0.00000000       0.00000000       0.00000000       0.65188837
Pr       0.00000000       0.00000000       4.88303030       0.00000000       0.00000000      -0.65188837
2
Properties=species:S:1:pos:R:3:forces:R:3 energy=-1.0619143168471288 pbc="F F F"
Pr       0.00000000       0.00000000       0.00000000       0.00000000       0.00000000       0.64791918
Pr       0.00000000       0.00000000       4.94181818       0.00000000       0.00000000      -0.64791918
2
Properties=species:S:1:pos:R:3:forces:R:3 energy=-1.0239518125175164 pbc="F F F"
Pr       0.00000000       0.00000000       0.00000000       0.00000000       0.00000000       0.64325899
Pr       0.00000000       0.00000000       5.00060606       0.00000000       0.00000000      -0.64325899
2
Properties=species:S:1:pos:R:3:forces:R:3 energy=-0.9863374409869049 pbc="F F F"
Pr       0.00000000       0.00000000       0.00000000       0.00000000       0.00000000       0.63574100
Pr       0.00000000       0.00000000       5.05939394       0.00000000       0.00000000      -0.63574100
2
Properties=species:S:1:pos:R:3:forces:R:3 energy=-0.9493012609616608 pbc="F F F"
Pr       0.00000000       0.00000000       0.00000000       0.00000000       0.00000000       0.62325692
Pr       0.00000000       0.00000000       5.11818182       0.00000000       0.00000000      -0.62325692
2
Properties=species:S:1:pos:R:3:forces:R:3 energy=-0.913191980493342 pbc="F F F"
Pr       0.00000000       0.00000000       0.00000000       0.00000000       0.00000000       0.60404217
Pr       0.00000000       0.00000000       5.17696970       0.00000000       0.00000000      -0.60404217
2
Properties=species:S:1:pos:R:3:forces:R:3 energy=-0.878438594594135 pbc="F F F"
Pr       0.00000000       0.00000000       0.00000000       0.00000000       0.00000000       0.57696825
Pr       0.00000000       0.00000000       5.23575758       0.00000000       0.00000000      -0.57696825
2
Properties=species:S:1:pos:R:3:forces:R:3 energy=-0.8455177636571813 pbc="F F F"
Pr       0.00000000       0.00000000       0.00000000       0.00000000       0.00000000       0.54169905
Pr       0.00000000       0.00000000       5.29454545       0.00000000       0.00000000      -0.54169905
2
Properties=species:S:1:pos:R:3:forces:R:3 energy=-0.8148968734297791 pbc="F F F"
Pr       0.00000000       0.00000000       0.00000000       0.00000000       0.00000000       0.49876183
Pr       0.00000000       0.00000000       5.35333333       0.00000000       0.00000000      -0.49876183
2
Properties=species:S:1:pos:R:3:forces:R:3 energy=-0.7869963674617309 pbc="F F F"
Pr       0.00000000       0.00000000       0.00000000       0.00000000       0.00000000       0.44945776
Pr       0.00000000       0.00000000       5.41212121       0.00000000       0.00000000      -0.44945776
2
Properties=species:S:1:pos:R:3:forces:R:3 energy=-0.7621395942565097 pbc="F F F"
Pr       0.00000000       0.00000000       0.00000000       0.00000000       0.00000000       0.39563882
Pr       0.00000000       0.00000000       5.47090909       0.00000000       0.00000000      -0.39563882
2
Properties=species:S:1:pos:R:3:forces:R:3 energy=-0.7405239168575247 pbc="F F F"
Pr       0.00000000       0.00000000       0.00000000       0.00000000       0.00000000       0.33949828
Pr       0.00000000       0.00000000       5.52969697       0.00000000       0.00000000      -0.33949828
2
Properties=species:S:1:pos:R:3:forces:R:3 energy=-0.7222233457878754 pbc="F F F"
Pr       0.00000000       0.00000000       0.00000000       0.00000000       0.00000000       0.28329593
Pr       0.00000000       0.00000000       5.58848485       0.00000000       0.00000000      -0.28329593
2
Properties=species:S:1:pos:R:3:forces:R:3 energy=-0.7071720233960562 pbc="F F F"
Pr       0.00000000       0.00000000       0.00000000       0.00000000       0.00000000       0.22928196
Pr       0.00000000       0.00000000       5.64727273       0.00000000       0.00000000      -0.22928196
2
Properties=species:S:1:pos:R:3:forces:R:3 energy=-0.695185800985308 pbc="F F F"
Pr       0.00000000       0.00000000       0.00000000       0.00000000       0.00000000       0.17946798
Pr       0.00000000       0.00000000       5.70606061       0.00000000       0.00000000      -0.17946798
2
Properties=species:S:1:pos:R:3:forces:R:3 energy=-0.6859456928969949 pbc="F F F"
Pr       0.00000000       0.00000000       0.00000000       0.00000000       0.00000000       0.13561934
Pr       0.00000000       0.00000000       5.76484848       0.00000000       0.00000000      -0.13561934
2
Properties=species:S:1:pos:R:3:forces:R:3 energy=-0.6790869903742939 pbc="F F F"
Pr       0.00000000       0.00000000       0.00000000       0.00000000       0.00000000       0.09931228
Pr       0.00000000       0.00000000       5.82363636       0.00000000       0.00000000      -0.09931228
2
Properties=species:S:1:pos:R:3:forces:R:3 energy=-0.6741076534708575 pbc="F F F"
Pr       0.00000000       0.00000000       0.00000000       0.00000000       0.00000000       0.07183071
Pr       0.00000000       0.00000000       5.88242424       0.00000000       0.00000000      -0.07183071
2
Properties=species:S:1:pos:R:3:forces:R:3 energy=-0.670445871700859 pbc="F F F"
Pr       0.00000000       0.00000000       0.00000000       0.00000000       0.00000000       0.05433781
Pr       0.00000000       0.00000000       5.94121212       0.00000000       0.00000000      -0.05433781
2
Properties=species:S:1:pos:R:3:forces:R:3 energy=-0.6675005098480447 pbc="F F F"
Pr       0.00000000       0.00000000       0.00000000       0.00000000       0.00000000       0.04782233
Pr       0.00000000       0.00000000       6.00000000       0.00000000       0.00000000      -0.04782233
