2
Properties=species:S:1:pos:R:3:forces:R:3 energy=16716.53116266171 pbc="F F F"
Pt       0.00000000       0.00000000       0.00000000       0.00000000       0.00000000 -295149.59375000
Pt       0.00000000       0.00000000       0.18000000       0.00000000       0.00000000  295149.59375000
2
Properties=species:S:1:pos:R:3:forces:R:3 energy=6431.286533755461 pbc="F F F"
Pt       0.00000000       0.00000000       0.00000000       0.00000000       0.00000000  -96919.20312500
Pt       0.00000000       0.00000000       0.23878788       0.00000000       0.00000000   96919.20312500
2
Properties=species:S:1:pos:R:3:forces:R:3 energy=2792.7254986023795 pbc="F F F"
Pt       0.00000000       0.00000000       0.00000000       0.00000000       0.00000000  -37426.54296875
Pt       0.00000000       0.00000000       0.29757576       0.00000000       0.00000000   37426.54296875
2
Properties=species:S:1:pos:R:3:forces:R:3 energy=1321.0703472383598 pbc="F F F"
Pt       0.00000000       0.00000000       0.00000000       0.00000000       0.00000000  -15987.94628906
Pt       0.00000000       0.00000000       0.35636364       0.00000000       0.00000000   15987.94628906
2
Properties=species:S:1:pos:R:3:forces:R:3 energy=671.2876324009454 pbc="F F F"
Pt       0.00000000       0.00000000       0.00000000       0.00000000       0.00000000   -7344.78222656
Pt       0.00000000       0.00000000       0.41515152       0.00000000       0.00000000    7344.78222656
2
Properties=species:S:1:pos:R:3:forces:R:3 energy=364.80463070463236 pbc="F F F"
Pt       0.00000000       0.00000000       0.00000000       0.00000000       0.00000000   -3575.57324219
Pt       0.00000000       0.00000000       0.47393939       0.00000000       0.00000000    3575.57324219
2
Properties=species:S:1:pos:R:3:forces:R:3 energy=212.34842345458432 pbc="F F F"
Pt       0.00000000       0.00000000       0.00000000       0.00000000       0.00000000   -1823.66223145
Pt       0.00000000       0.00000000       0.53272727       0.00000000       0.00000000    1823.66223145
2
Properties=species:S:1:pos:R:3:forces:R:3 energy=133.33942081021914 pbc="F F F"
Pt       0.00000000       0.00000000       0.00000000       0.00000000       0.00000000    -961.20715332
Pt       0.00000000       0.00000000       0.59151515       0.00000000       0.00000000     961.20715332
2
Properties=species:S:1:pos:R:3:forces:R:3 energy=91.35644205594262 pbc="F F F"
Pt       0.00000000       0.00000000       0.00000000       0.00000000       0.00000000    -513.87689209
Pt       0.00000000       0.00000000       0.65030303       0.00000000       0.00000000     513.87689209
2
Properties=species:S:1:pos:R:3:forces:R:3 energy=68.95503683234375 pbc="F F F"
Pt       0.00000000       0.00000000       0.00000000       0.00000000       0.00000000    -272.36199951
Pt       0.00000000       0.00000000       0.70909091       0.00000000       0.00000000     272.36199951
2
Properties=species:S:1:pos:R:3:forces:R:3 energy=57.206414099615564 pbc="F F F"
Pt       0.00000000       0.00000000       0.00000000       0.00000000       0.00000000    -140.93692017
Pt       0.00000000       0.00000000       0.76787879       0.00000000       0.00000000     140.93692017
2
Properties=species:S:1:pos:R:3:forces:R:3 energy=51.15014756203772 pbc="F F F"
Pt       0.00000000       0.00000000       0.00000000       0.00000000       0.00000000     -72.93144989
Pt       0.00000000       0.00000000       0.82666667       0.00000000       0.00000000      72.93144989
2
Properties=species:S:1:pos:R:3:forces:R:3 energy=47.9269270789672 pbc="F F F"
Pt       0.00000000       0.00000000       0.00000000       0.00000000       0.00000000     -41.88027954
Pt       0.00000000       0.00000000       0.88545455       0.00000000       0.00000000      41.88027954
2
Properties=species:S:1:pos:R:3:forces:R:3 energy=45.61873054532744 pbc="F F F"
Pt       0.00000000       0.00000000       0.00000000       0.00000000       0.00000000     -41.43954849
Pt       0.00000000       0.00000000       0.94424242       0.00000000       0.00000000      41.43954849
2
Properties=species:S:1:pos:R:3:forces:R:3 energy=42.61104078405041 pbc="F F F"
Pt       0.00000000       0.00000000       0.00000000       0.00000000       0.00000000     -63.31735992
Pt       0.00000000       0.00000000       1.00303030       0.00000000       0.00000000      63.31735992
2
Properties=species:S:1:pos:R:3:forces:R:3 energy=38.10815777574691 pbc="F F F"
Pt       0.00000000       0.00000000       0.00000000       0.00000000       0.00000000     -88.44376373
Pt       0.00000000       0.00000000       1.06181818       0.00000000       0.00000000      88.44376373
2
Properties=species:S:1:pos:R:3:forces:R:3 energy=32.56687631937509 pbc="F F F"
Pt       0.00000000       0.00000000       0.00000000       0.00000000       0.00000000     -96.21249390
Pt       0.00000000       0.00000000       1.12060606       0.00000000       0.00000000      96.21249390
2
Properties=species:S:1:pos:R:3:forces:R:3 energy=27.14924483397425 pbc="F F F"
Pt       0.00000000       0.00000000       0.00000000       0.00000000       0.00000000     -86.82687378
Pt       0.00000000       0.00000000       1.17939394       0.00000000       0.00000000      86.82687378
2
Properties=species:S:1:pos:R:3:forces:R:3 energy=22.323750194132085 pbc="F F F"
Pt       0.00000000       0.00000000       0.00000000       0.00000000       0.00000000     -78.41992188
Pt       0.00000000       0.00000000       1.23818182       0.00000000       0.00000000      78.41992188
2
Properties=species:S:1:pos:R:3:forces:R:3 energy=17.823779491459284 pbc="F F F"
Pt       0.00000000       0.00000000       0.00000000       0.00000000       0.00000000     -75.06266022
Pt       0.00000000       0.00000000       1.29696970       0.00000000       0.00000000      75.06266022
2
Properties=species:S:1:pos:R:3:forces:R:3 energy=13.52144417633216 pbc="F F F"
Pt       0.00000000       0.00000000       0.00000000       0.00000000       0.00000000     -70.64276886
Pt       0.00000000       0.00000000       1.35575758       0.00000000       0.00000000      70.64276886
2
Properties=species:S:1:pos:R:3:forces:R:3 energy=9.616682211737281 pbc="F F F"
Pt       0.00000000       0.00000000       0.00000000       0.00000000       0.00000000     -61.36384964
Pt       0.00000000       0.00000000       1.41454545       0.00000000       0.00000000      61.36384964
2
Properties=species:S:1:pos:R:3:forces:R:3 energy=6.378689319042023 pbc="F F F"
Pt       0.00000000       0.00000000       0.00000000       0.00000000       0.00000000     -48.50765610
Pt       0.00000000       0.00000000       1.47333333       0.00000000       0.00000000      48.50765610
2
Properties=species:S:1:pos:R:3:forces:R:3 energy=3.9056431023226974 pbc="F F F"
Pt       0.00000000       0.00000000       0.00000000       0.00000000       0.00000000     -35.97412872
Pt       0.00000000       0.00000000       1.53212121       0.00000000       0.00000000      35.97412872
2
Properties=species:S:1:pos:R:3:forces:R:3 energy=2.0926238982385246 pbc="F F F"
Pt       0.00000000       0.00000000       0.00000000       0.00000000       0.00000000     -26.23361397
Pt       0.00000000       0.00000000       1.59090909       0.00000000       0.00000000      26.23361397
2
Properties=species:S:1:pos:R:3:forces:R:3 energy=0.7626715731184633 pbc="F F F"
Pt       0.00000000       0.00000000       0.00000000       0.00000000       0.00000000     -19.45468140
Pt       0.00000000       0.00000000       1.64969697       0.00000000       0.00000000      19.45468140
2
Properties=species:S:1:pos:R:3:forces:R:3 energy=-0.2387155846909197 pbc="F F F"
Pt       0.00000000       0.00000000       0.00000000       0.00000000       0.00000000     -14.91831493
Pt       0.00000000       0.00000000       1.70848485       0.00000000       0.00000000      14.91831493
2
Properties=species:S:1:pos:R:3:forces:R:3 energy=-1.0199511905312055 pbc="F F F"
Pt       0.00000000       0.00000000       0.00000000       0.00000000       0.00000000     -11.84742260
Pt       0.00000000       0.00000000       1.76727273       0.00000000       0.00000000      11.84742260
2
Properties=species:S:1:pos:R:3:forces:R:3 energy=-1.6483501775473794 pbc="F F F"
Pt       0.00000000       0.00000000       0.00000000       0.00000000       0.00000000      -9.63332939
Pt       0.00000000       0.00000000       1.82606061       0.00000000       0.00000000       9.63332939
2
Properties=species:S:1:pos:R:3:forces:R:3 energy=-2.161136607827528 pbc="F F F"
Pt       0.00000000       0.00000000       0.00000000       0.00000000       0.00000000      -7.86149454
Pt       0.00000000       0.00000000       1.88484848       0.00000000       0.00000000       7.86149454
2
Properties=species:S:1:pos:R:3:forces:R:3 energy=-2.5768338485067197 pbc="F F F"
Pt       0.00000000       0.00000000       0.00000000       0.00000000       0.00000000      -6.30751514
Pt       0.00000000       0.00000000       1.94363636       0.00000000       0.00000000       6.30751514
2
Properties=species:S:1:pos:R:3:forces:R:3 energy=-2.9056009872684645 pbc="F F F"
Pt       0.00000000       0.00000000       0.00000000       0.00000000       0.00000000      -4.90153503
Pt       0.00000000       0.00000000       2.00242424       0.00000000       0.00000000       4.90153503
2
Properties=species:S:1:pos:R:3:forces:R:3 energy=-3.156174100507553 pbc="F F F"
Pt       0.00000000       0.00000000       0.00000000       0.00000000       0.00000000      -3.65062594
Pt       0.00000000       0.00000000       2.06121212       0.00000000       0.00000000       3.65062594
2
Properties=species:S:1:pos:R:3:forces:R:3 energy=-3.33813417238593 pbc="F F F"
Pt       0.00000000       0.00000000       0.00000000       0.00000000       0.00000000      -2.56757259
Pt       0.00000000       0.00000000       2.12000000       0.00000000       0.00000000       2.56757259
2
Properties=species:S:1:pos:R:3:forces:R:3 energy=-3.461139912866464 pbc="F F F"
Pt       0.00000000       0.00000000       0.00000000       0.00000000       0.00000000      -1.64095914
Pt       0.00000000       0.00000000       2.17878788       0.00000000       0.00000000       1.64095914
2
Properties=species:S:1:pos:R:3:forces:R:3 energy=-3.5335206721197774 pbc="F F F"
Pt       0.00000000       0.00000000       0.00000000       0.00000000       0.00000000      -0.83929610
Pt       0.00000000       0.00000000       2.23757576       0.00000000       0.00000000       0.83929610
2
Properties=species:S:1:pos:R:3:forces:R:3 energy=-3.561638323708852 pbc="F F F"
Pt       0.00000000       0.00000000       0.00000000       0.00000000       0.00000000      -0.13110499
Pt       0.00000000       0.00000000       2.29636364       0.00000000       0.00000000       0.13110499
2
Properties=species:S:1:pos:R:3:forces:R:3 energy=-3.5505026527962236 pbc="F F F"
Pt       0.00000000       0.00000000       0.00000000       0.00000000       0.00000000       0.49626815
Pt       0.00000000       0.00000000       2.35515152       0.00000000       0.00000000      -0.49626815
2
Properties=species:S:1:pos:R:3:forces:R:3 energy=-3.505042003305831 pbc="F F F"
Pt       0.00000000       0.00000000       0.00000000       0.00000000       0.00000000       1.03396678
Pt       0.00000000       0.00000000       2.41393939       0.00000000       0.00000000      -1.03396678
2
Properties=species:S:1:pos:R:3:forces:R:3 energy=-3.4310373352318213 pbc="F F F"
Pt       0.00000000       0.00000000       0.00000000       0.00000000       0.00000000       1.46452940
Pt       0.00000000       0.00000000       2.47272727       0.00000000       0.00000000      -1.46452940
2
Properties=species:S:1:pos:R:3:forces:R:3 energy=-3.3351693189469307 pbc="F F F"
Pt       0.00000000       0.00000000       0.00000000       0.00000000       0.00000000       1.77703965
Pt       0.00000000       0.00000000       2.53151515       0.00000000       0.00000000      -1.77703965
2
Properties=species:S:1:pos:R:3:forces:R:3 energy=-3.2243776926702448 pbc="F F F"
Pt       0.00000000       0.00000000       0.00000000       0.00000000       0.00000000       1.97377264
Pt       0.00000000       0.00000000       2.59030303       0.00000000       0.00000000      -1.97377264
2
Properties=species:S:1:pos:R:3:forces:R:3 energy=-3.10510484504067 pbc="F F F"
Pt       0.00000000       0.00000000       0.00000000       0.00000000       0.00000000       2.06852698
Pt       0.00000000       0.00000000       2.64909091       0.00000000       0.00000000      -2.06852698
2
Properties=species:S:1:pos:R:3:forces:R:3 energy=-2.982783763168937 pbc="F F F"
Pt       0.00000000       0.00000000       0.00000000       0.00000000       0.00000000       2.08085704
Pt       0.00000000       0.00000000       2.70787879       0.00000000       0.00000000      -2.08085704
2
Properties=species:S:1:pos:R:3:forces:R:3 energy=-2.8616819207005744 pbc="F F F"
Pt       0.00000000       0.00000000       0.00000000       0.00000000       0.00000000       2.03002095
Pt       0.00000000       0.00000000       2.76666667       0.00000000       0.00000000      -2.03002095
2
Properties=species:S:1:pos:R:3:forces:R:3 energy=-2.745003053416858 pbc="F F F"
Pt       0.00000000       0.00000000       0.00000000       0.00000000       0.00000000       1.93314540
Pt       0.00000000       0.00000000       2.82545455       0.00000000       0.00000000      -1.93314540
2
Properties=species:S:1:pos:R:3:forces:R:3 energy=-2.6349788452394054 pbc="F F F"
Pt       0.00000000       0.00000000       0.00000000       0.00000000       0.00000000       1.80618036
Pt       0.00000000       0.00000000       2.88424242       0.00000000       0.00000000      -1.80618036
2
Properties=species:S:1:pos:R:3:forces:R:3 energy=-2.5329502107766637 pbc="F F F"
Pt       0.00000000       0.00000000       0.00000000       0.00000000       0.00000000       1.66334462
Pt       0.00000000       0.00000000       2.94303030       0.00000000       0.00000000      -1.66334462
2
Properties=species:S:1:pos:R:3:forces:R:3 energy=-2.4394831149749314 pbc="F F F"
Pt       0.00000000       0.00000000       0.00000000       0.00000000       0.00000000       1.51674259
Pt       0.00000000       0.00000000       3.00181818       0.00000000       0.00000000      -1.51674259
2
Properties=species:S:1:pos:R:3:forces:R:3 energy=-2.354484727061528 pbc="F F F"
Pt       0.00000000       0.00000000       0.00000000       0.00000000       0.00000000       1.37689018
Pt       0.00000000       0.00000000       3.06060606       0.00000000       0.00000000      -1.37689018
2
Properties=species:S:1:pos:R:3:forces:R:3 energy=-2.277288630278285 pbc="F F F"
Pt       0.00000000       0.00000000       0.00000000       0.00000000       0.00000000       1.25255561
Pt       0.00000000       0.00000000       3.11939394       0.00000000       0.00000000      -1.25255561
2
Properties=species:S:1:pos:R:3:forces:R:3 energy=-2.2067904881016682 pbc="F F F"
Pt       0.00000000       0.00000000       0.00000000       0.00000000       0.00000000       1.14972758
Pt       0.00000000       0.00000000       3.17818182       0.00000000       0.00000000      -1.14972758
2
Properties=species:S:1:pos:R:3:forces:R:3 energy=-2.1416398456703565 pbc="F F F"
Pt       0.00000000       0.00000000       0.00000000       0.00000000       0.00000000       1.07070005
Pt       0.00000000       0.00000000       3.23696970       0.00000000       0.00000000      -1.07070005
2
Properties=species:S:1:pos:R:3:forces:R:3 energy=-2.0804578739762105 pbc="F F F"
Pt       0.00000000       0.00000000       0.00000000       0.00000000       0.00000000       1.01427984
Pt       0.00000000       0.00000000       3.29575758       0.00000000       0.00000000      -1.01427984
2
Properties=species:S:1:pos:R:3:forces:R:3 energy=-2.0220101139643334 pbc="F F F"
Pt       0.00000000       0.00000000       0.00000000       0.00000000       0.00000000       0.97698259
Pt       0.00000000       0.00000000       3.35454545       0.00000000       0.00000000      -0.97698259
2
Properties=species:S:1:pos:R:3:forces:R:3 energy=-1.9652987560265194 pbc="F F F"
Pt       0.00000000       0.00000000       0.00000000       0.00000000       0.00000000       0.95446134
Pt       0.00000000       0.00000000       3.41333333       0.00000000       0.00000000      -0.95446134
2
Properties=species:S:1:pos:R:3:forces:R:3 energy=-1.9095846675453263 pbc="F F F"
Pt       0.00000000       0.00000000       0.00000000       0.00000000       0.00000000       0.94234067
Pt       0.00000000       0.00000000       3.47212121       0.00000000       0.00000000      -0.94234067
2
Properties=species:S:1:pos:R:3:forces:R:3 energy=-1.854380801537105 pbc="F F F"
Pt       0.00000000       0.00000000       0.00000000       0.00000000       0.00000000       0.93642682
Pt       0.00000000       0.00000000       3.53090909       0.00000000       0.00000000      -0.93642682
2
Properties=species:S:1:pos:R:3:forces:R:3 energy=-1.799443557730307 pbc="F F F"
Pt       0.00000000       0.00000000       0.00000000       0.00000000       0.00000000       0.93253094
Pt       0.00000000       0.00000000       3.58969697       0.00000000       0.00000000      -0.93253094
2
Properties=species:S:1:pos:R:3:forces:R:3 energy=-1.744780114520766 pbc="F F F"
Pt       0.00000000       0.00000000       0.00000000       0.00000000       0.00000000       0.92647141
Pt       0.00000000       0.00000000       3.64848485       0.00000000       0.00000000      -0.92647141
2
Properties=species:S:1:pos:R:3:forces:R:3 energy=-1.6906304283689775 pbc="F F F"
Pt       0.00000000       0.00000000       0.00000000       0.00000000       0.00000000       0.91448635
Pt       0.00000000       0.00000000       3.70727273       0.00000000       0.00000000      -0.91448635
2
Properties=species:S:1:pos:R:3:forces:R:3 energy=-1.6374283695718337 pbc="F F F"
Pt       0.00000000       0.00000000       0.00000000       0.00000000       0.00000000       0.89388657
Pt       0.00000000       0.00000000       3.76606061       0.00000000       0.00000000      -0.89388657
2
Properties=species:S:1:pos:R:3:forces:R:3 energy=-1.5857215977809356 pbc="F F F"
Pt       0.00000000       0.00000000       0.00000000       0.00000000       0.00000000       0.86361921
Pt       0.00000000       0.00000000       3.82484848       0.00000000       0.00000000      -0.86361921
2
Properties=species:S:1:pos:R:3:forces:R:3 energy=-1.5360635552184374 pbc="F F F"
Pt       0.00000000       0.00000000       0.00000000       0.00000000       0.00000000       0.82440060
Pt       0.00000000       0.00000000       3.88363636       0.00000000       0.00000000      -0.82440060
2
Properties=species:S:1:pos:R:3:forces:R:3 energy=-1.4889251305936198 pbc="F F F"
Pt       0.00000000       0.00000000       0.00000000       0.00000000       0.00000000       0.77840066
Pt       0.00000000       0.00000000       3.94242424       0.00000000       0.00000000      -0.77840066
2
Properties=species:S:1:pos:R:3:forces:R:3 energy=-1.4446187501278922 pbc="F F F"
Pt       0.00000000       0.00000000       0.00000000       0.00000000       0.00000000       0.72856891
Pt       0.00000000       0.00000000       4.00121212       0.00000000       0.00000000      -0.72856891
2
Properties=species:S:1:pos:R:3:forces:R:3 energy=-1.4032787840497503 pbc="F F F"
Pt       0.00000000       0.00000000       0.00000000       0.00000000       0.00000000       0.67793375
Pt       0.00000000       0.00000000       4.06000000       0.00000000       0.00000000      -0.67793375
2
Properties=species:S:1:pos:R:3:forces:R:3 energy=-1.3648755277597426 pbc="F F F"
Pt       0.00000000       0.00000000       0.00000000       0.00000000       0.00000000       0.62903374
Pt       0.00000000       0.00000000       4.11878788       0.00000000       0.00000000      -0.62903374
2
Properties=species:S:1:pos:R:3:forces:R:3 energy=-1.3292507547091588 pbc="F F F"
Pt       0.00000000       0.00000000       0.00000000       0.00000000       0.00000000       0.58360285
Pt       0.00000000       0.00000000       4.17757576       0.00000000       0.00000000      -0.58360285
2
Properties=species:S:1:pos:R:3:forces:R:3 energy=-1.2961725705122011 pbc="F F F"
Pt       0.00000000       0.00000000       0.00000000       0.00000000       0.00000000       0.54247034
Pt       0.00000000       0.00000000       4.23636364       0.00000000       0.00000000      -0.54247034
2
Properties=species:S:1:pos:R:3:forces:R:3 energy=-1.2653843667823037 pbc="F F F"
Pt       0.00000000       0.00000000       0.00000000       0.00000000       0.00000000       0.50562412
Pt       0.00000000       0.00000000       4.29515152       0.00000000       0.00000000      -0.50562412
2
Properties=species:S:1:pos:R:3:forces:R:3 energy=-1.2366532296071562 pbc="F F F"
Pt       0.00000000       0.00000000       0.00000000       0.00000000       0.00000000       0.47236851
Pt       0.00000000       0.00000000       4.35393939       0.00000000       0.00000000      -0.47236851
2
Properties=species:S:1:pos:R:3:forces:R:3 energy=-1.209798672987225 pbc="F F F"
Pt       0.00000000       0.00000000       0.00000000       0.00000000       0.00000000       0.44152391
Pt       0.00000000       0.00000000       4.41272727       0.00000000       0.00000000      -0.44152391
2
Properties=species:S:1:pos:R:3:forces:R:3 energy=-1.1847207912350208 pbc="F F F"
Pt       0.00000000       0.00000000       0.00000000       0.00000000       0.00000000       0.41167569
Pt       0.00000000       0.00000000       4.47151515       0.00000000       0.00000000      -0.41167569
2
Properties=species:S:1:pos:R:3:forces:R:3 energy=-1.161402203169645 pbc="F F F"
Pt       0.00000000       0.00000000       0.00000000       0.00000000       0.00000000       0.38146740
Pt       0.00000000       0.00000000       4.53030303       0.00000000       0.00000000      -0.38146740
2
Properties=species:S:1:pos:R:3:forces:R:3 energy=-1.1398973094414893 pbc="F F F"
Pt       0.00000000       0.00000000       0.00000000       0.00000000       0.00000000       0.34986728
Pt       0.00000000       0.00000000       4.58909091       0.00000000       0.00000000      -0.34986728
2
Properties=species:S:1:pos:R:3:forces:R:3 energy=-1.1203039734063471 pbc="F F F"
Pt       0.00000000       0.00000000       0.00000000       0.00000000       0.00000000       0.31640476
Pt       0.00000000       0.00000000       4.64787879       0.00000000       0.00000000      -0.31640476
2
Properties=species:S:1:pos:R:3:forces:R:3 energy=-1.1027291508361574 pbc="F F F"
Pt       0.00000000       0.00000000       0.00000000       0.00000000       0.00000000       0.28124219
Pt       0.00000000       0.00000000       4.70666667       0.00000000       0.00000000      -0.28124219
2
Properties=species:S:1:pos:R:3:forces:R:3 energy=-1.087255039648464 pbc="F F F"
Pt       0.00000000       0.00000000       0.00000000       0.00000000       0.00000000       0.24513604
Pt       0.00000000       0.00000000       4.76545455       0.00000000       0.00000000      -0.24513604
2
Properties=species:S:1:pos:R:3:forces:R:3 energy=-1.0739034236575518 pbc="F F F"
Pt       0.00000000       0.00000000       0.00000000       0.00000000       0.00000000       0.20922074
Pt       0.00000000       0.00000000       4.82424242       0.00000000       0.00000000      -0.20922074
2
Properties=species:S:1:pos:R:3:forces:R:3 energy=-1.062627293078134 pbc="F F F"
Pt       0.00000000       0.00000000       0.00000000       0.00000000       0.00000000       0.17478621
Pt       0.00000000       0.00000000       4.88303030       0.00000000       0.00000000      -0.17478621
2
Properties=species:S:1:pos:R:3:forces:R:3 energy=-1.0533006404597434 pbc="F F F"
Pt       0.00000000       0.00000000       0.00000000       0.00000000       0.00000000       0.14302583
Pt       0.00000000       0.00000000       4.94181818       0.00000000       0.00000000      -0.14302583
2
Properties=species:S:1:pos:R:3:forces:R:3 energy=-1.0457382795231056 pbc="F F F"
Pt       0.00000000       0.00000000       0.00000000       0.00000000       0.00000000       0.11490665
Pt       0.00000000       0.00000000       5.00060606       0.00000000       0.00000000      -0.11490665
2
Properties=species:S:1:pos:R:3:forces:R:3 energy=-1.0397063545845553 pbc="F F F"
Pt       0.00000000       0.00000000       0.00000000       0.00000000       0.00000000       0.09104794
Pt       0.00000000       0.00000000       5.05939394       0.00000000       0.00000000      -0.09104794
2
Properties=species:S:1:pos:R:3:forces:R:3 energy=-1.0349444627987365 pbc="F F F"
Pt       0.00000000       0.00000000       0.00000000       0.00000000       0.00000000       0.07170377
Pt       0.00000000       0.00000000       5.11818182       0.00000000       0.00000000      -0.07170377
2
Properties=species:S:1:pos:R:3:forces:R:3 energy=-1.0311894417475773 pbc="F F F"
Pt       0.00000000       0.00000000       0.00000000       0.00000000       0.00000000       0.05675847
Pt       0.00000000       0.00000000       5.17696970       0.00000000       0.00000000      -0.05675847
2
Properties=species:S:1:pos:R:3:forces:R:3 energy=-1.028193732422615 pbc="F F F"
Pt       0.00000000       0.00000000       0.00000000       0.00000000       0.00000000       0.04576975
Pt       0.00000000       0.00000000       5.23575758       0.00000000       0.00000000      -0.04576975
2
Properties=species:S:1:pos:R:3:forces:R:3 energy=-1.0257442570583426 pbc="F F F"
Pt       0.00000000       0.00000000       0.00000000       0.00000000       0.00000000       0.03804219
Pt       0.00000000       0.00000000       5.29454545       0.00000000       0.00000000      -0.03804219
2
Properties=species:S:1:pos:R:3:forces:R:3 energy=-1.0236730667728464 pbc="F F F"
Pt       0.00000000       0.00000000       0.00000000       0.00000000       0.00000000       0.03274675
Pt       0.00000000       0.00000000       5.35333333       0.00000000       0.00000000      -0.03274675
2
Properties=species:S:1:pos:R:3:forces:R:3 energy=-1.0218628251951234 pbc="F F F"
Pt       0.00000000       0.00000000       0.00000000       0.00000000       0.00000000       0.02903756
Pt       0.00000000       0.00000000       5.41212121       0.00000000       0.00000000      -0.02903756
2
Properties=species:S:1:pos:R:3:forces:R:3 energy=-1.0202424737491012 pbc="F F F"
Pt       0.00000000       0.00000000       0.00000000       0.00000000       0.00000000       0.02617977
Pt       0.00000000       0.00000000       5.47090909       0.00000000       0.00000000      -0.02617977
2
Properties=species:S:1:pos:R:3:forces:R:3 energy=-1.018778782049278 pbc="F F F"
Pt       0.00000000       0.00000000       0.00000000       0.00000000       0.00000000       0.02362831
Pt       0.00000000       0.00000000       5.52969697       0.00000000       0.00000000      -0.02362831
2
Properties=species:S:1:pos:R:3:forces:R:3 energy=-1.017464689149014 pbc="F F F"
Pt       0.00000000       0.00000000       0.00000000       0.00000000       0.00000000       0.02106478
Pt       0.00000000       0.00000000       5.58848485       0.00000000       0.00000000      -0.02106478
2
Properties=species:S:1:pos:R:3:forces:R:3 energy=-1.016304467319691 pbc="F F F"
Pt       0.00000000       0.00000000       0.00000000       0.00000000       0.00000000       0.01838703
Pt       0.00000000       0.00000000       5.64727273       0.00000000       0.00000000      -0.01838703
2
Properties=species:S:1:pos:R:3:forces:R:3 energy=-1.0153040534269706 pbc="F F F"
Pt       0.00000000       0.00000000       0.00000000       0.00000000       0.00000000       0.01565336
Pt       0.00000000       0.00000000       5.70606061       0.00000000       0.00000000      -0.01565336
2
Properties=species:S:1:pos:R:3:forces:R:3 energy=-1.0144616702027403 pbc="F F F"
Pt       0.00000000       0.00000000       0.00000000       0.00000000       0.00000000       0.01301751
Pt       0.00000000       0.00000000       5.76484848       0.00000000       0.00000000      -0.01301751
2
Properties=species:S:1:pos:R:3:forces:R:3 energy=-1.0137677632646673 pbc="F F F"
Pt       0.00000000       0.00000000       0.00000000       0.00000000       0.00000000       0.01066222
Pt       0.00000000       0.00000000       5.82363636       0.00000000       0.00000000      -0.01066222
2
Properties=species:S:1:pos:R:3:forces:R:3 energy=-1.0131998355189715 pbc="F F F"
Pt       0.00000000       0.00000000       0.00000000       0.00000000       0.00000000       0.00874961
Pt       0.00000000       0.00000000       5.88242424       0.00000000       0.00000000      -0.00874961
2
Properties=species:S:1:pos:R:3:forces:R:3 energy=-1.0127279925602763 pbc="F F F"
Pt       0.00000000       0.00000000       0.00000000       0.00000000       0.00000000       0.00739531
Pt       0.00000000       0.00000000       5.94121212       0.00000000       0.00000000      -0.00739531
2
Properties=species:S:1:pos:R:3:forces:R:3 energy=-1.012317802110647 pbc="F F F"
Pt       0.00000000       0.00000000       0.00000000       0.00000000       0.00000000       0.00667370
Pt       0.00000000       0.00000000       6.00000000       0.00000000       0.00000000      -0.00667370
