2
Properties=species:S:1:pos:R:3:forces:R:3 energy=118095.65097030363 pbc="F F F"
Pu       0.00000000       0.00000000       0.00000000       0.00000000       0.00000000 -3062395.50000000
Pu       0.00000000       0.00000000       0.10000000       0.00000000       0.00000000 3062395.50000000
2
Properties=species:S:1:pos:R:3:forces:R:3 energy=31365.03964217862 pbc="F F F"
Pu       0.00000000       0.00000000       0.00000000       0.00000000       0.00000000 -609427.87500000
Pu       0.00000000       0.00000000       0.15959596       0.00000000       0.00000000  609427.87500000
2
Properties=species:S:1:pos:R:3:forces:R:3 energy=10930.90682967862 pbc="F F F"
Pu       0.00000000       0.00000000       0.00000000       0.00000000       0.00000000 -177851.32812500
Pu       0.00000000       0.00000000       0.21919192       0.00000000       0.00000000  177851.32812500
2
Properties=species:S:1:pos:R:3:forces:R:3 energy=4398.643646084872 pbc="F F F"
Pu       0.00000000       0.00000000       0.00000000       0.00000000       0.00000000  -63389.13671875
Pu       0.00000000       0.00000000       0.27878788       0.00000000       0.00000000   63389.13671875
2
Properties=species:S:1:pos:R:3:forces:R:3 energy=1940.7657163973713 pbc="F F F"
Pu       0.00000000       0.00000000       0.00000000       0.00000000       0.00000000  -25447.02539062
Pu       0.00000000       0.00000000       0.33838384       0.00000000       0.00000000   25447.02539062
2
Properties=species:S:1:pos:R:3:forces:R:3 energy=916.0086973544027 pbc="F F F"
Pu       0.00000000       0.00000000       0.00000000       0.00000000       0.00000000  -11111.88378906
Pu       0.00000000       0.00000000       0.39797980       0.00000000       0.00000000   11111.88378906
2
Properties=species:S:1:pos:R:3:forces:R:3 energy=454.6377256810508 pbc="F F F"
Pu       0.00000000       0.00000000       0.00000000       0.00000000       0.00000000   -5194.98046875
Pu       0.00000000       0.00000000       0.45757576       0.00000000       0.00000000    5194.98046875
2
Properties=species:S:1:pos:R:3:forces:R:3 energy=233.12670884168332 pbc="F F F"
Pu       0.00000000       0.00000000       0.00000000       0.00000000       0.00000000   -2576.34716797
Pu       0.00000000       0.00000000       0.51717172       0.00000000       0.00000000    2576.34716797
2
Properties=species:S:1:pos:R:3:forces:R:3 energy=120.67318711950334 pbc="F F F"
Pu       0.00000000       0.00000000       0.00000000       0.00000000       0.00000000   -1344.85253906
Pu       0.00000000       0.00000000       0.57676768       0.00000000       0.00000000    1344.85253906
2
Properties=species:S:1:pos:R:3:forces:R:3 energy=60.78180682845167 pbc="F F F"
Pu       0.00000000       0.00000000       0.00000000       0.00000000       0.00000000    -733.11706543
Pu       0.00000000       0.00000000       0.63636364       0.00000000       0.00000000     733.11706543
2
Properties=species:S:1:pos:R:3:forces:R:3 energy=27.585910711448253 pbc="F F F"
Pu       0.00000000       0.00000000       0.00000000       0.00000000       0.00000000    -414.06564331
Pu       0.00000000       0.00000000       0.69595960       0.00000000       0.00000000     414.06564331
2
Properties=species:S:1:pos:R:3:forces:R:3 energy=8.582992512389563 pbc="F F F"
Pu       0.00000000       0.00000000       0.00000000       0.00000000       0.00000000    -240.63359070
Pu       0.00000000       0.00000000       0.75555556       0.00000000       0.00000000     240.63359070
2
Properties=species:S:1:pos:R:3:forces:R:3 energy=-2.5857829763900306 pbc="F F F"
Pu       0.00000000       0.00000000       0.00000000       0.00000000       0.00000000    -143.29302979
Pu       0.00000000       0.00000000       0.81515152       0.00000000       0.00000000     143.29302979
2
Properties=species:S:1:pos:R:3:forces:R:3 energy=-9.311930539363374 pbc="F F F"
Pu       0.00000000       0.00000000       0.00000000       0.00000000       0.00000000     -87.51982117
Pu       0.00000000       0.00000000       0.87474747       0.00000000       0.00000000      87.51982117
2
Properties=species:S:1:pos:R:3:forces:R:3 energy=-13.478916859097657 pbc="F F F"
Pu       0.00000000       0.00000000       0.00000000       0.00000000       0.00000000     -55.22573471
Pu       0.00000000       0.00000000       0.93434343       0.00000000       0.00000000      55.22573471
2
Properties=species:S:1:pos:R:3:forces:R:3 energy=-16.15724899148907 pbc="F F F"
Pu       0.00000000       0.00000000       0.00000000       0.00000000       0.00000000     -36.29293442
Pu       0.00000000       0.00000000       0.99393939       0.00000000       0.00000000      36.29293442
2
Properties=species:S:1:pos:R:3:forces:R:3 energy=-17.949506053358903 pbc="F F F"
Pu       0.00000000       0.00000000       0.00000000       0.00000000       0.00000000     -24.72939491
Pu       0.00000000       0.00000000       1.05353535       0.00000000       0.00000000      24.72939491
2
Properties=species:S:1:pos:R:3:forces:R:3 energy=-19.1813134136387 pbc="F F F"
Pu       0.00000000       0.00000000       0.00000000       0.00000000       0.00000000     -17.07725906
Pu       0.00000000       0.00000000       1.11313131       0.00000000       0.00000000      17.07725906
2
Properties=species:S:1:pos:R:3:forces:R:3 energy=-20.028580102015574 pbc="F F F"
Pu       0.00000000       0.00000000       0.00000000       0.00000000       0.00000000     -11.65479946
Pu       0.00000000       0.00000000       1.17272727       0.00000000       0.00000000      11.65479946
2
Properties=species:S:1:pos:R:3:forces:R:3 energy=-20.60159472581335 pbc="F F F"
Pu       0.00000000       0.00000000       0.00000000       0.00000000       0.00000000      -7.80702400
Pu       0.00000000       0.00000000       1.23232323       0.00000000       0.00000000       7.80702400
2
Properties=species:S:1:pos:R:3:forces:R:3 energy=-20.98346232796279 pbc="F F F"
Pu       0.00000000       0.00000000       0.00000000       0.00000000       0.00000000      -5.18173218
Pu       0.00000000       0.00000000       1.29191919       0.00000000       0.00000000       5.18173218
2
Properties=species:S:1:pos:R:3:forces:R:3 energy=-21.235988595547692 pbc="F F F"
Pu       0.00000000       0.00000000       0.00000000       0.00000000       0.00000000      -3.40166092
Pu       0.00000000       0.00000000       1.35151515       0.00000000       0.00000000       3.40166092
2
Properties=species:S:1:pos:R:3:forces:R:3 energy=-21.39887495868182 pbc="F F F"
Pu       0.00000000       0.00000000       0.00000000       0.00000000       0.00000000      -2.13067365
Pu       0.00000000       0.00000000       1.41111111       0.00000000       0.00000000       2.13067365
2
Properties=species:S:1:pos:R:3:forces:R:3 energy=-21.497086640263614 pbc="F F F"
Pu       0.00000000       0.00000000       0.00000000       0.00000000       0.00000000      -1.22462165
Pu       0.00000000       0.00000000       1.47070707       0.00000000       0.00000000       1.22462165
2
Properties=species:S:1:pos:R:3:forces:R:3 energy=-21.552140389534678 pbc="F F F"
Pu       0.00000000       0.00000000       0.00000000       0.00000000       0.00000000      -0.68413579
Pu       0.00000000       0.00000000       1.53030303       0.00000000       0.00000000       0.68413579
2
Properties=species:S:1:pos:R:3:forces:R:3 energy=-21.585270649132028 pbc="F F F"
Pu       0.00000000       0.00000000       0.00000000       0.00000000       0.00000000      -0.47396427
Pu       0.00000000       0.00000000       1.58989899       0.00000000       0.00000000       0.47396427
2
Properties=species:S:1:pos:R:3:forces:R:3 energy=-21.612489534800396 pbc="F F F"
Pu       0.00000000       0.00000000       0.00000000       0.00000000       0.00000000      -0.45656276
Pu       0.00000000       0.00000000       1.64949495       0.00000000       0.00000000       0.45656276
2
Properties=species:S:1:pos:R:3:forces:R:3 energy=-21.639953885563116 pbc="F F F"
Pu       0.00000000       0.00000000       0.00000000       0.00000000       0.00000000      -0.45382276
Pu       0.00000000       0.00000000       1.70909091       0.00000000       0.00000000       0.45382276
2
Properties=species:S:1:pos:R:3:forces:R:3 energy=-21.664136906092175 pbc="F F F"
Pu       0.00000000       0.00000000       0.00000000       0.00000000       0.00000000      -0.33268517
Pu       0.00000000       0.00000000       1.76868687       0.00000000       0.00000000       0.33268517
2
Properties=species:S:1:pos:R:3:forces:R:3 energy=-21.677294653232394 pbc="F F F"
Pu       0.00000000       0.00000000       0.00000000       0.00000000       0.00000000      -0.10387941
Pu       0.00000000       0.00000000       1.82828283       0.00000000       0.00000000       0.10387941
2
Properties=species:S:1:pos:R:3:forces:R:3 energy=-21.67881285301806 pbc="F F F"
Pu       0.00000000       0.00000000       0.00000000       0.00000000       0.00000000       0.00942098
Pu       0.00000000       0.00000000       1.88787879       0.00000000       0.00000000      -0.00942098
2
Properties=species:S:1:pos:R:3:forces:R:3 energy=-21.68254440750689 pbc="F F F"
Pu       0.00000000       0.00000000       0.00000000       0.00000000       0.00000000      -0.18287025
Pu       0.00000000       0.00000000       1.94747475       0.00000000       0.00000000       0.18287025
2
Properties=species:S:1:pos:R:3:forces:R:3 energy=-21.703814729915 pbc="F F F"
Pu       0.00000000       0.00000000       0.00000000       0.00000000       0.00000000      -0.53423476
Pu       0.00000000       0.00000000       2.00707071       0.00000000       0.00000000       0.53423476
2
Properties=species:S:1:pos:R:3:forces:R:3 energy=-21.744555806016326 pbc="F F F"
Pu       0.00000000       0.00000000       0.00000000       0.00000000       0.00000000      -0.80839479
Pu       0.00000000       0.00000000       2.06666667       0.00000000       0.00000000       0.80839479
2
Properties=species:S:1:pos:R:3:forces:R:3 energy=-21.796930112195447 pbc="F F F"
Pu       0.00000000       0.00000000       0.00000000       0.00000000       0.00000000      -0.92291170
Pu       0.00000000       0.00000000       2.12626263       0.00000000       0.00000000       0.92291170
2
Properties=species:S:1:pos:R:3:forces:R:3 energy=-21.851816561570434 pbc="F F F"
Pu       0.00000000       0.00000000       0.00000000       0.00000000       0.00000000      -0.90011829
Pu       0.00000000       0.00000000       2.18585859       0.00000000       0.00000000       0.90011829
2
Properties=species:S:1:pos:R:3:forces:R:3 energy=-21.90247438766795 pbc="F F F"
Pu       0.00000000       0.00000000       0.00000000       0.00000000       0.00000000      -0.78929651
Pu       0.00000000       0.00000000       2.24545455       0.00000000       0.00000000       0.78929651
2
Properties=species:S:1:pos:R:3:forces:R:3 energy=-21.94504482779885 pbc="F F F"
Pu       0.00000000       0.00000000       0.00000000       0.00000000       0.00000000      -0.63534582
Pu       0.00000000       0.00000000       2.30505051       0.00000000       0.00000000       0.63534582
2
Properties=species:S:1:pos:R:3:forces:R:3 energy=-21.978034294935107 pbc="F F F"
Pu       0.00000000       0.00000000       0.00000000       0.00000000       0.00000000      -0.47269702
Pu       0.00000000       0.00000000       2.36464646       0.00000000       0.00000000       0.47269702
2
Properties=species:S:1:pos:R:3:forces:R:3 energy=-22.001728910378574 pbc="F F F"
Pu       0.00000000       0.00000000       0.00000000       0.00000000       0.00000000      -0.32703331
Pu       0.00000000       0.00000000       2.42424242       0.00000000       0.00000000       0.32703331
2
Properties=species:S:1:pos:R:3:forces:R:3 energy=-22.017715733911576 pbc="F F F"
Pu       0.00000000       0.00000000       0.00000000       0.00000000       0.00000000      -0.21638118
Pu       0.00000000       0.00000000       2.48383838       0.00000000       0.00000000       0.21638118
2
Properties=species:S:1:pos:R:3:forces:R:3 energy=-22.02841565345118 pbc="F F F"
Pu       0.00000000       0.00000000       0.00000000       0.00000000       0.00000000      -0.15057445
Pu       0.00000000       0.00000000       2.54343434       0.00000000       0.00000000       0.15057445
2
Properties=species:S:1:pos:R:3:forces:R:3 energy=-22.03658583315311 pbc="F F F"
Pu       0.00000000       0.00000000       0.00000000       0.00000000       0.00000000      -0.13100240
Pu       0.00000000       0.00000000       2.60303030       0.00000000       0.00000000       0.13100240
2
Properties=species:S:1:pos:R:3:forces:R:3 energy=-22.0448314828469 pbc="F F F"
Pu       0.00000000       0.00000000       0.00000000       0.00000000       0.00000000      -0.15150370
Pu       0.00000000       0.00000000       2.66262626       0.00000000       0.00000000       0.15150370
2
Properties=species:S:1:pos:R:3:forces:R:3 energy=-22.055202171704007 pbc="F F F"
Pu       0.00000000       0.00000000       0.00000000       0.00000000       0.00000000      -0.19994150
Pu       0.00000000       0.00000000       2.72222222       0.00000000       0.00000000       0.19994150
2
Properties=species:S:1:pos:R:3:forces:R:3 energy=-22.068896524988922 pbc="F F F"
Pu       0.00000000       0.00000000       0.00000000       0.00000000       0.00000000      -0.26014310
Pu       0.00000000       0.00000000       2.78181818       0.00000000       0.00000000       0.26014310
2
Properties=species:S:1:pos:R:3:forces:R:3 energy=-22.086089497974225 pbc="F F F"
Pu       0.00000000       0.00000000       0.00000000       0.00000000       0.00000000      -0.31445611
Pu       0.00000000       0.00000000       2.84141414       0.00000000       0.00000000       0.31445611
2
Properties=species:S:1:pos:R:3:forces:R:3 energy=-22.105946715741553 pbc="F F F"
Pu       0.00000000       0.00000000       0.00000000       0.00000000       0.00000000      -0.34723350
Pu       0.00000000       0.00000000       2.90101010       0.00000000       0.00000000       0.34723350
2
Properties=species:S:1:pos:R:3:forces:R:3 energy=-22.12685082012042 pbc="F F F"
Pu       0.00000000       0.00000000       0.00000000       0.00000000       0.00000000      -0.34871101
Pu       0.00000000       0.00000000       2.96060606       0.00000000       0.00000000       0.34871101
2
Properties=species:S:1:pos:R:3:forces:R:3 energy=-22.146857217985794 pbc="F F F"
Pu       0.00000000       0.00000000       0.00000000       0.00000000       0.00000000      -0.31772506
Pu       0.00000000       0.00000000       3.02020202       0.00000000       0.00000000       0.31772506
2
Properties=species:S:1:pos:R:3:forces:R:3 energy=-22.164217226657907 pbc="F F F"
Pu       0.00000000       0.00000000       0.00000000       0.00000000       0.00000000      -0.26155719
Pu       0.00000000       0.00000000       3.07979798       0.00000000       0.00000000       0.26155719
2
Properties=species:S:1:pos:R:3:forces:R:3 energy=-22.177777799177658 pbc="F F F"
Pu       0.00000000       0.00000000       0.00000000       0.00000000       0.00000000      -0.19249867
Pu       0.00000000       0.00000000       3.13939394       0.00000000       0.00000000       0.19249867
2
Properties=species:S:1:pos:R:3:forces:R:3 energy=-22.187149915212274 pbc="F F F"
Pu       0.00000000       0.00000000       0.00000000       0.00000000       0.00000000      -0.12276474
Pu       0.00000000       0.00000000       3.19898990       0.00000000       0.00000000       0.12276474
2
Properties=species:S:1:pos:R:3:forces:R:3 energy=-22.19256299437136 pbc="F F F"
Pu       0.00000000       0.00000000       0.00000000       0.00000000       0.00000000      -0.06048207
Pu       0.00000000       0.00000000       3.25858586       0.00000000       0.00000000       0.06048207
2
Properties=species:S:1:pos:R:3:forces:R:3 energy=-22.194564408482716 pbc="F F F"
Pu       0.00000000       0.00000000       0.00000000       0.00000000       0.00000000      -0.00834458
Pu       0.00000000       0.00000000       3.31818182       0.00000000       0.00000000       0.00834458
2
Properties=species:S:1:pos:R:3:forces:R:3 energy=-22.193727155776514 pbc="F F F"
Pu       0.00000000       0.00000000       0.00000000       0.00000000       0.00000000       0.03531466
Pu       0.00000000       0.00000000       3.37777778       0.00000000       0.00000000      -0.03531466
2
Properties=species:S:1:pos:R:3:forces:R:3 energy=-22.190448873351063 pbc="F F F"
Pu       0.00000000       0.00000000       0.00000000       0.00000000       0.00000000       0.07427877
Pu       0.00000000       0.00000000       3.43737374       0.00000000       0.00000000      -0.07427877
2
Properties=species:S:1:pos:R:3:forces:R:3 energy=-22.18489076751937 pbc="F F F"
Pu       0.00000000       0.00000000       0.00000000       0.00000000       0.00000000       0.11234209
Pu       0.00000000       0.00000000       3.49696970       0.00000000       0.00000000      -0.11234209
2
Properties=species:S:1:pos:R:3:forces:R:3 energy=-22.177019466291334 pbc="F F F"
Pu       0.00000000       0.00000000       0.00000000       0.00000000       0.00000000       0.15228641
Pu       0.00000000       0.00000000       3.55656566       0.00000000       0.00000000      -0.15228641
2
Properties=species:S:1:pos:R:3:forces:R:3 energy=-22.166660315105293 pbc="F F F"
Pu       0.00000000       0.00000000       0.00000000       0.00000000       0.00000000       0.19621918
Pu       0.00000000       0.00000000       3.61616162       0.00000000       0.00000000      -0.19621918
2
Properties=species:S:1:pos:R:3:forces:R:3 energy=-22.153520458511366 pbc="F F F"
Pu       0.00000000       0.00000000       0.00000000       0.00000000       0.00000000       0.24570283
Pu       0.00000000       0.00000000       3.67575758       0.00000000       0.00000000      -0.24570283
2
Properties=species:S:1:pos:R:3:forces:R:3 energy=-22.137293165303365 pbc="F F F"
Pu       0.00000000       0.00000000       0.00000000       0.00000000       0.00000000       0.29901248
Pu       0.00000000       0.00000000       3.73535354       0.00000000       0.00000000      -0.29901248
2
Properties=species:S:1:pos:R:3:forces:R:3 energy=-22.117971884488355 pbc="F F F"
Pu       0.00000000       0.00000000       0.00000000       0.00000000       0.00000000       0.34748846
Pu       0.00000000       0.00000000       3.79494949       0.00000000       0.00000000      -0.34748846
2
Properties=species:S:1:pos:R:3:forces:R:3 energy=-22.096223033143165 pbc="F F F"
Pu       0.00000000       0.00000000       0.00000000       0.00000000       0.00000000       0.37865514
Pu       0.00000000       0.00000000       3.85454545       0.00000000       0.00000000      -0.37865514
2
Properties=species:S:1:pos:R:3:forces:R:3 energy=-22.07333527039681 pbc="F F F"
Pu       0.00000000       0.00000000       0.00000000       0.00000000       0.00000000       0.38524044
Pu       0.00000000       0.00000000       3.91414141       0.00000000       0.00000000      -0.38524044
2
Properties=species:S:1:pos:R:3:forces:R:3 energy=-22.050758713982948 pbc="F F F"
Pu       0.00000000       0.00000000       0.00000000       0.00000000       0.00000000       0.36915818
Pu       0.00000000       0.00000000       3.97373737       0.00000000       0.00000000      -0.36915818
2
Properties=species:S:1:pos:R:3:forces:R:3 energy=-22.02963280939202 pbc="F F F"
Pu       0.00000000       0.00000000       0.00000000       0.00000000       0.00000000       0.33807167
Pu       0.00000000       0.00000000       4.03333333       0.00000000       0.00000000      -0.33807167
2
Properties=species:S:1:pos:R:3:forces:R:3 energy=-22.0105875945431 pbc="F F F"
Pu       0.00000000       0.00000000       0.00000000       0.00000000       0.00000000       0.30072138
Pu       0.00000000       0.00000000       4.09292929       0.00000000       0.00000000      -0.30072138
2
Properties=species:S:1:pos:R:3:forces:R:3 energy=-21.993764519030744 pbc="F F F"
Pu       0.00000000       0.00000000       0.00000000       0.00000000       0.00000000       0.26451465
Pu       0.00000000       0.00000000       4.15252525       0.00000000       0.00000000      -0.26451465
2
Properties=species:S:1:pos:R:3:forces:R:3 energy=-21.978928455235827 pbc="F F F"
Pu       0.00000000       0.00000000       0.00000000       0.00000000       0.00000000       0.23487182
Pu       0.00000000       0.00000000       4.21212121       0.00000000       0.00000000      -0.23487182
2
Properties=species:S:1:pos:R:3:forces:R:3 energy=-21.96556997852619 pbc="F F F"
Pu       0.00000000       0.00000000       0.00000000       0.00000000       0.00000000       0.21525688
Pu       0.00000000       0.00000000       4.27171717       0.00000000       0.00000000      -0.21525688
2
Properties=species:S:1:pos:R:3:forces:R:3 energy=-21.95303776275112 pbc="F F F"
Pu       0.00000000       0.00000000       0.00000000       0.00000000       0.00000000       0.20735240
Pu       0.00000000       0.00000000       4.33131313       0.00000000       0.00000000      -0.20735240
2
Properties=species:S:1:pos:R:3:forces:R:3 energy=-21.940620879738066 pbc="F F F"
Pu       0.00000000       0.00000000       0.00000000       0.00000000       0.00000000       0.21125922
Pu       0.00000000       0.00000000       4.39090909       0.00000000       0.00000000      -0.21125922
2
Properties=species:S:1:pos:R:3:forces:R:3 energy=-21.927646162132536 pbc="F F F"
Pu       0.00000000       0.00000000       0.00000000       0.00000000       0.00000000       0.22571506
Pu       0.00000000       0.00000000       4.45050505       0.00000000       0.00000000      -0.22571506
2
Properties=species:S:1:pos:R:3:forces:R:3 energy=-21.91355430061872 pbc="F F F"
Pu       0.00000000       0.00000000       0.00000000       0.00000000       0.00000000       0.24832942
Pu       0.00000000       0.00000000       4.51010101       0.00000000       0.00000000      -0.24832942
2
Properties=species:S:1:pos:R:3:forces:R:3 energy=-21.89794991649293 pbc="F F F"
Pu       0.00000000       0.00000000       0.00000000       0.00000000       0.00000000       0.27585125
Pu       0.00000000       0.00000000       4.56969697       0.00000000       0.00000000      -0.27585125
2
Properties=species:S:1:pos:R:3:forces:R:3 energy=-21.880651513859767 pbc="F F F"
Pu       0.00000000       0.00000000       0.00000000       0.00000000       0.00000000       0.30448803
Pu       0.00000000       0.00000000       4.62929293       0.00000000       0.00000000      -0.30448803
2
Properties=species:S:1:pos:R:3:forces:R:3 energy=-21.86171258084433 pbc="F F F"
Pu       0.00000000       0.00000000       0.00000000       0.00000000       0.00000000       0.33031759
Pu       0.00000000       0.00000000       4.68888889       0.00000000       0.00000000      -0.33031759
2
Properties=species:S:1:pos:R:3:forces:R:3 energy=-21.84140820647355 pbc="F F F"
Pu       0.00000000       0.00000000       0.00000000       0.00000000       0.00000000       0.34979683
Pu       0.00000000       0.00000000       4.74848485       0.00000000       0.00000000      -0.34979683
2
Properties=species:S:1:pos:R:3:forces:R:3 energy=-21.82019908814231 pbc="F F F"
Pu       0.00000000       0.00000000       0.00000000       0.00000000       0.00000000       0.36030740
Pu       0.00000000       0.00000000       4.80808081       0.00000000       0.00000000      -0.36030740
2
Properties=species:S:1:pos:R:3:forces:R:3 energy=-21.798664565335034 pbc="F F F"
Pu       0.00000000       0.00000000       0.00000000       0.00000000       0.00000000       0.36065128
Pu       0.00000000       0.00000000       4.86767677       0.00000000       0.00000000      -0.36065128
2
Properties=species:S:1:pos:R:3:forces:R:3 energy=-21.77740753096239 pbc="F F F"
Pu       0.00000000       0.00000000       0.00000000       0.00000000       0.00000000       0.35124961
Pu       0.00000000       0.00000000       4.92727273       0.00000000       0.00000000      -0.35124961
2
Properties=species:S:1:pos:R:3:forces:R:3 energy=-21.756954983135312 pbc="F F F"
Pu       0.00000000       0.00000000       0.00000000       0.00000000       0.00000000       0.33399829
Pu       0.00000000       0.00000000       4.98686869       0.00000000       0.00000000      -0.33399829
2
Properties=species:S:1:pos:R:3:forces:R:3 energy=-21.73769914444754 pbc="F F F"
Pu       0.00000000       0.00000000       0.00000000       0.00000000       0.00000000       0.31171075
Pu       0.00000000       0.00000000       5.04646465       0.00000000       0.00000000      -0.31171075
2
Properties=species:S:1:pos:R:3:forces:R:3 energy=-21.71984386614454 pbc="F F F"
Pu       0.00000000       0.00000000       0.00000000       0.00000000       0.00000000       0.28737003
Pu       0.00000000       0.00000000       5.10606061       0.00000000       0.00000000      -0.28737003
2
Properties=species:S:1:pos:R:3:forces:R:3 energy=-21.703435215393743 pbc="F F F"
Pu       0.00000000       0.00000000       0.00000000       0.00000000       0.00000000       0.26340264
Pu       0.00000000       0.00000000       5.16565657       0.00000000       0.00000000      -0.26340264
2
Properties=species:S:1:pos:R:3:forces:R:3 energy=-21.68840913365777 pbc="F F F"
Pu       0.00000000       0.00000000       0.00000000       0.00000000       0.00000000       0.24125537
Pu       0.00000000       0.00000000       5.22525253       0.00000000       0.00000000      -0.24125537
2
Properties=species:S:1:pos:R:3:forces:R:3 energy=-21.674637067341806 pbc="F F F"
Pu       0.00000000       0.00000000       0.00000000       0.00000000       0.00000000       0.22127342
Pu       0.00000000       0.00000000       5.28484848       0.00000000       0.00000000      -0.22127342
2
Properties=species:S:1:pos:R:3:forces:R:3 energy=-21.662002363109224 pbc="F F F"
Pu       0.00000000       0.00000000       0.00000000       0.00000000       0.00000000       0.20296849
Pu       0.00000000       0.00000000       5.34444444       0.00000000       0.00000000      -0.20296849
2
Properties=species:S:1:pos:R:3:forces:R:3 energy=-21.650430589054736 pbc="F F F"
Pu       0.00000000       0.00000000       0.00000000       0.00000000       0.00000000       0.18539655
Pu       0.00000000       0.00000000       5.40404040       0.00000000       0.00000000      -0.18539655
2
Properties=species:S:1:pos:R:3:forces:R:3 energy=-21.639906669163864 pbc="F F F"
Pu       0.00000000       0.00000000       0.00000000       0.00000000       0.00000000       0.16762531
Pu       0.00000000       0.00000000       5.46363636       0.00000000       0.00000000      -0.16762531
2
Properties=species:S:1:pos:R:3:forces:R:3 energy=-21.630469135924468 pbc="F F F"
Pu       0.00000000       0.00000000       0.00000000       0.00000000       0.00000000       0.14904037
Pu       0.00000000       0.00000000       5.52323232       0.00000000       0.00000000      -0.14904037
2
Properties=species:S:1:pos:R:3:forces:R:3 energy=-21.622164239917957 pbc="F F F"
Pu       0.00000000       0.00000000       0.00000000       0.00000000       0.00000000       0.12953888
Pu       0.00000000       0.00000000       5.58282828       0.00000000       0.00000000      -0.12953888
2
Properties=species:S:1:pos:R:3:forces:R:3 energy=-21.61504012006744 pbc="F F F"
Pu       0.00000000       0.00000000       0.00000000       0.00000000       0.00000000       0.10954098
Pu       0.00000000       0.00000000       5.64242424       0.00000000       0.00000000      -0.10954098
2
Properties=species:S:1:pos:R:3:forces:R:3 energy=-21.60909906923676 pbc="F F F"
Pu       0.00000000       0.00000000       0.00000000       0.00000000       0.00000000       0.08987053
Pu       0.00000000       0.00000000       5.70202020       0.00000000       0.00000000      -0.08987053
2
Properties=species:S:1:pos:R:3:forces:R:3 energy=-21.604301336256448 pbc="F F F"
Pu       0.00000000       0.00000000       0.00000000       0.00000000       0.00000000       0.07157385
Pu       0.00000000       0.00000000       5.76161616       0.00000000       0.00000000      -0.07157385
2
Properties=species:S:1:pos:R:3:forces:R:3 energy=-21.600521028821998 pbc="F F F"
Pu       0.00000000       0.00000000       0.00000000       0.00000000       0.00000000       0.05575560
Pu       0.00000000       0.00000000       5.82121212       0.00000000       0.00000000      -0.05575560
2
Properties=species:S:1:pos:R:3:forces:R:3 energy=-21.597588195541014 pbc="F F F"
Pu       0.00000000       0.00000000       0.00000000       0.00000000       0.00000000       0.04340699
Pu       0.00000000       0.00000000       5.88080808       0.00000000       0.00000000      -0.04340699
2
Properties=species:S:1:pos:R:3:forces:R:3 energy=-21.595260006627466 pbc="F F F"
Pu       0.00000000       0.00000000       0.00000000       0.00000000       0.00000000       0.03533882
Pu       0.00000000       0.00000000       5.94040404       0.00000000       0.00000000      -0.03533882
2
Properties=species:S:1:pos:R:3:forces:R:3 energy=-21.593276130368487 pbc="F F F"
Pu       0.00000000       0.00000000       0.00000000       0.00000000       0.00000000       0.03215090
Pu       0.00000000       0.00000000       6.00000000       0.00000000       0.00000000      -0.03215090
