2
Properties=species:S:1:pos:R:3:forces:R:3 energy=27558.795054347764 pbc="F F F"
Rb       0.00000000       0.00000000       0.00000000       0.00000000       0.00000000 -642203.68750000
Rb       0.00000000       0.00000000       0.10000000       0.00000000       0.00000000  642203.68750000
2
Properties=species:S:1:pos:R:3:forces:R:3 energy=8378.729624660262 pbc="F F F"
Rb       0.00000000       0.00000000       0.00000000       0.00000000       0.00000000 -145608.01562500
Rb       0.00000000       0.00000000       0.15959596       0.00000000       0.00000000  145608.01562500
2
Properties=species:S:1:pos:R:3:forces:R:3 energy=3292.465708644637 pbc="F F F"
Rb       0.00000000       0.00000000       0.00000000       0.00000000       0.00000000  -46932.72265625
Rb       0.00000000       0.00000000       0.21919192       0.00000000       0.00000000   46932.72265625
2
Properties=species:S:1:pos:R:3:forces:R:3 energy=1496.4333600118243 pbc="F F F"
Rb       0.00000000       0.00000000       0.00000000       0.00000000       0.00000000  -18467.71289062
Rb       0.00000000       0.00000000       0.27878788       0.00000000       0.00000000   18467.71289062
2
Properties=species:S:1:pos:R:3:forces:R:3 energy=748.2674054219806 pbc="F F F"
Rb       0.00000000       0.00000000       0.00000000       0.00000000       0.00000000   -8212.02734375
Rb       0.00000000       0.00000000       0.33838384       0.00000000       0.00000000    8212.02734375
2
Properties=species:S:1:pos:R:3:forces:R:3 energy=402.877360255965 pbc="F F F"
Rb       0.00000000       0.00000000       0.00000000       0.00000000       0.00000000   -3956.36303711
Rb       0.00000000       0.00000000       0.39797980       0.00000000       0.00000000    3956.36303711
2
Properties=species:S:1:pos:R:3:forces:R:3 energy=231.95180788938487 pbc="F F F"
Rb       0.00000000       0.00000000       0.00000000       0.00000000       0.00000000   -2019.29602051
Rb       0.00000000       0.00000000       0.45757576       0.00000000       0.00000000    2019.29602051
2
Properties=species:S:1:pos:R:3:forces:R:3 energy=142.85512820188487 pbc="F F F"
Rb       0.00000000       0.00000000       0.00000000       0.00000000       0.00000000   -1078.65124512
Rb       0.00000000       0.00000000       0.51717172       0.00000000       0.00000000    1078.65124512
2
Properties=species:S:1:pos:R:3:forces:R:3 energy=94.4147519233144 pbc="F F F"
Rb       0.00000000       0.00000000       0.00000000       0.00000000       0.00000000    -598.56414795
Rb       0.00000000       0.00000000       0.57676768       0.00000000       0.00000000     598.56414795
2
Properties=species:S:1:pos:R:3:forces:R:3 energy=67.12703219991973 pbc="F F F"
Rb       0.00000000       0.00000000       0.00000000       0.00000000       0.00000000    -343.00692749
Rb       0.00000000       0.00000000       0.63636364       0.00000000       0.00000000     343.00692749
2
Properties=species:S:1:pos:R:3:forces:R:3 energy=51.29637806038435 pbc="F F F"
Rb       0.00000000       0.00000000       0.00000000       0.00000000       0.00000000    -201.68630981
Rb       0.00000000       0.00000000       0.69595960       0.00000000       0.00000000     201.68630981
2
Properties=species:S:1:pos:R:3:forces:R:3 energy=41.905020648012815 pbc="F F F"
Rb       0.00000000       0.00000000       0.00000000       0.00000000       0.00000000    -120.72694397
Rb       0.00000000       0.00000000       0.75555556       0.00000000       0.00000000     120.72694397
2
Properties=species:S:1:pos:R:3:forces:R:3 energy=36.25700277738333 pbc="F F F"
Rb       0.00000000       0.00000000       0.00000000       0.00000000       0.00000000     -72.88608551
Rb       0.00000000       0.00000000       0.81515152       0.00000000       0.00000000      72.88608551
2
Properties=species:S:1:pos:R:3:forces:R:3 energy=32.84477898047229 pbc="F F F"
Rb       0.00000000       0.00000000       0.00000000       0.00000000       0.00000000     -44.02665710
Rb       0.00000000       0.00000000       0.87474747       0.00000000       0.00000000      44.02665710
2
Properties=species:S:1:pos:R:3:forces:R:3 energy=30.782469740678145 pbc="F F F"
Rb       0.00000000       0.00000000       0.00000000       0.00000000       0.00000000     -26.70177841
Rb       0.00000000       0.00000000       0.93434343       0.00000000       0.00000000      26.70177841
2
Properties=species:S:1:pos:R:3:forces:R:3 energy=29.512133625985054 pbc="F F F"
Rb       0.00000000       0.00000000       0.00000000       0.00000000       0.00000000     -16.98557281
Rb       0.00000000       0.00000000       0.99393939       0.00000000       0.00000000      16.98557281
2
Properties=species:S:1:pos:R:3:forces:R:3 energy=28.648259238077582 pbc="F F F"
Rb       0.00000000       0.00000000       0.00000000       0.00000000       0.00000000     -12.81851673
Rb       0.00000000       0.00000000       1.05353535       0.00000000       0.00000000      12.81851673
2
Properties=species:S:1:pos:R:3:forces:R:3 energy=27.897002361852824 pbc="F F F"
Rb       0.00000000       0.00000000       0.00000000       0.00000000       0.00000000     -13.05341530
Rb       0.00000000       0.00000000       1.11313131       0.00000000       0.00000000      13.05341530
2
Properties=species:S:1:pos:R:3:forces:R:3 energy=27.02227138354125 pbc="F F F"
Rb       0.00000000       0.00000000       0.00000000       0.00000000       0.00000000     -16.81059456
Rb       0.00000000       0.00000000       1.17272727       0.00000000       0.00000000      16.81059456
2
Properties=species:S:1:pos:R:3:forces:R:3 energy=25.844884256866195 pbc="F F F"
Rb       0.00000000       0.00000000       0.00000000       0.00000000       0.00000000     -22.98574638
Rb       0.00000000       0.00000000       1.23232323       0.00000000       0.00000000      22.98574638
2
Properties=species:S:1:pos:R:3:forces:R:3 energy=24.266410354618387 pbc="F F F"
Rb       0.00000000       0.00000000       0.00000000       0.00000000       0.00000000     -29.95856857
Rb       0.00000000       0.00000000       1.29191919       0.00000000       0.00000000      29.95856857
2
Properties=species:S:1:pos:R:3:forces:R:3 energy=22.29713029384824 pbc="F F F"
Rb       0.00000000       0.00000000       0.00000000       0.00000000       0.00000000     -35.79336929
Rb       0.00000000       0.00000000       1.35151515       0.00000000       0.00000000      35.79336929
2
Properties=species:S:1:pos:R:3:forces:R:3 energy=20.050064024128698 pbc="F F F"
Rb       0.00000000       0.00000000       0.00000000       0.00000000       0.00000000     -39.17219543
Rb       0.00000000       0.00000000       1.41111111       0.00000000       0.00000000      39.17219543
2
Properties=species:S:1:pos:R:3:forces:R:3 energy=17.674301368195657 pbc="F F F"
Rb       0.00000000       0.00000000       0.00000000       0.00000000       0.00000000     -40.25677109
Rb       0.00000000       0.00000000       1.47070707       0.00000000       0.00000000      40.25677109
2
Properties=species:S:1:pos:R:3:forces:R:3 energy=15.276597595373232 pbc="F F F"
Rb       0.00000000       0.00000000       0.00000000       0.00000000       0.00000000     -40.06970215
Rb       0.00000000       0.00000000       1.53030303       0.00000000       0.00000000      40.06970215
2
Properties=species:S:1:pos:R:3:forces:R:3 energy=12.911777545850365 pbc="F F F"
Rb       0.00000000       0.00000000       0.00000000       0.00000000       0.00000000     -39.17823792
Rb       0.00000000       0.00000000       1.58989899       0.00000000       0.00000000      39.17823792
2
Properties=species:S:1:pos:R:3:forces:R:3 energy=10.623250583000344 pbc="F F F"
Rb       0.00000000       0.00000000       0.00000000       0.00000000       0.00000000     -37.45877457
Rb       0.00000000       0.00000000       1.64949495       0.00000000       0.00000000      37.45877457
2
Properties=species:S:1:pos:R:3:forces:R:3 energy=8.469203250561357 pbc="F F F"
Rb       0.00000000       0.00000000       0.00000000       0.00000000       0.00000000     -34.63019943
Rb       0.00000000       0.00000000       1.70909091       0.00000000       0.00000000      34.63019943
2
Properties=species:S:1:pos:R:3:forces:R:3 energy=6.519212309389135 pbc="F F F"
Rb       0.00000000       0.00000000       0.00000000       0.00000000       0.00000000     -30.62380791
Rb       0.00000000       0.00000000       1.76868687       0.00000000       0.00000000      30.62380791
2
Properties=species:S:1:pos:R:3:forces:R:3 energy=4.838171502608706 pbc="F F F"
Rb       0.00000000       0.00000000       0.00000000       0.00000000       0.00000000     -25.66689873
Rb       0.00000000       0.00000000       1.82828283       0.00000000       0.00000000      25.66689873
2
Properties=species:S:1:pos:R:3:forces:R:3 energy=3.4688526702323963 pbc="F F F"
Rb       0.00000000       0.00000000       0.00000000       0.00000000       0.00000000     -20.26647186
Rb       0.00000000       0.00000000       1.88787879       0.00000000       0.00000000      20.26647186
2
Properties=species:S:1:pos:R:3:forces:R:3 energy=2.417990211955908 pbc="F F F"
Rb       0.00000000       0.00000000       0.00000000       0.00000000       0.00000000     -15.09313393
Rb       0.00000000       0.00000000       1.94747475       0.00000000       0.00000000      15.09313393
2
Properties=species:S:1:pos:R:3:forces:R:3 energy=1.6536454794721729 pbc="F F F"
Rb       0.00000000       0.00000000       0.00000000       0.00000000       0.00000000     -10.72560978
Rb       0.00000000       0.00000000       2.00707071       0.00000000       0.00000000      10.72560978
2
Properties=species:S:1:pos:R:3:forces:R:3 energy=1.1179488380197877 pbc="F F F"
Rb       0.00000000       0.00000000       0.00000000       0.00000000       0.00000000      -7.43666124
Rb       0.00000000       0.00000000       2.06666667       0.00000000       0.00000000       7.43666124
2
Properties=species:S:1:pos:R:3:forces:R:3 energy=0.7463314452246425 pbc="F F F"
Rb       0.00000000       0.00000000       0.00000000       0.00000000       0.00000000      -5.19576645
Rb       0.00000000       0.00000000       2.12626263       0.00000000       0.00000000       5.19576645
2
Properties=species:S:1:pos:R:3:forces:R:3 energy=0.48164124822769633 pbc="F F F"
Rb       0.00000000       0.00000000       0.00000000       0.00000000       0.00000000      -3.80959511
Rb       0.00000000       0.00000000       2.18585859       0.00000000       0.00000000       3.80959511
2
Properties=species:S:1:pos:R:3:forces:R:3 energy=0.28021252624636706 pbc="F F F"
Rb       0.00000000       0.00000000       0.00000000       0.00000000       0.00000000      -3.02991271
Rb       0.00000000       0.00000000       2.24545455       0.00000000       0.00000000       3.02991271
2
Properties=species:S:1:pos:R:3:forces:R:3 energy=0.11337745961430158 pbc="F F F"
Rb       0.00000000       0.00000000       0.00000000       0.00000000       0.00000000      -2.61096597
Rb       0.00000000       0.00000000       2.30505051       0.00000000       0.00000000       2.61096597
2
Properties=species:S:1:pos:R:3:forces:R:3 energy=-0.034405865377529335 pbc="F F F"
Rb       0.00000000       0.00000000       0.00000000       0.00000000       0.00000000      -2.36676836
Rb       0.00000000       0.00000000       2.36464646       0.00000000       0.00000000       2.36676836
2
Properties=species:S:1:pos:R:3:forces:R:3 energy=-0.1701383579846378 pbc="F F F"
Rb       0.00000000       0.00000000       0.00000000       0.00000000       0.00000000      -2.19592810
Rb       0.00000000       0.00000000       2.42424242       0.00000000       0.00000000       2.19592810
2
Properties=species:S:1:pos:R:3:forces:R:3 energy=-0.29676571753568687 pbc="F F F"
Rb       0.00000000       0.00000000       0.00000000       0.00000000       0.00000000      -2.05725598
Rb       0.00000000       0.00000000       2.48383838       0.00000000       0.00000000       2.05725598
2
Properties=species:S:1:pos:R:3:forces:R:3 energy=-0.4156740218885025 pbc="F F F"
Rb       0.00000000       0.00000000       0.00000000       0.00000000       0.00000000      -1.93518889
Rb       0.00000000       0.00000000       2.54343434       0.00000000       0.00000000       1.93518889
2
Properties=species:S:1:pos:R:3:forces:R:3 energy=-0.5275647283671092 pbc="F F F"
Rb       0.00000000       0.00000000       0.00000000       0.00000000       0.00000000      -1.82022238
Rb       0.00000000       0.00000000       2.60303030       0.00000000       0.00000000       1.82022238
2
Properties=species:S:1:pos:R:3:forces:R:3 energy=-0.6325919156861987 pbc="F F F"
Rb       0.00000000       0.00000000       0.00000000       0.00000000       0.00000000      -1.70333898
Rb       0.00000000       0.00000000       2.66262626       0.00000000       0.00000000       1.70333898
2
Properties=species:S:1:pos:R:3:forces:R:3 energy=-0.7303899053062873 pbc="F F F"
Rb       0.00000000       0.00000000       0.00000000       0.00000000       0.00000000      -1.57646620
Rb       0.00000000       0.00000000       2.72222222       0.00000000       0.00000000       1.57646620
2
Properties=species:S:1:pos:R:3:forces:R:3 energy=-0.820176528064702 pbc="F F F"
Rb       0.00000000       0.00000000       0.00000000       0.00000000       0.00000000      -1.43374288
Rb       0.00000000       0.00000000       2.78181818       0.00000000       0.00000000       1.43374288
2
Properties=species:S:1:pos:R:3:forces:R:3 energy=-0.9009054955303919 pbc="F F F"
Rb       0.00000000       0.00000000       0.00000000       0.00000000       0.00000000      -1.27225733
Rb       0.00000000       0.00000000       2.84141414       0.00000000       0.00000000       1.27225733
2
Properties=species:S:1:pos:R:3:forces:R:3 energy=-0.9714548182056195 pbc="F F F"
Rb       0.00000000       0.00000000       0.00000000       0.00000000       0.00000000      -1.09254277
Rb       0.00000000       0.00000000       2.90101010       0.00000000       0.00000000       1.09254277
2
Properties=species:S:1:pos:R:3:forces:R:3 energy=-1.0308481017329008 pbc="F F F"
Rb       0.00000000       0.00000000       0.00000000       0.00000000       0.00000000      -0.89886218
Rb       0.00000000       0.00000000       2.96060606       0.00000000       0.00000000       0.89886218
2
Properties=species:S:1:pos:R:3:forces:R:3 energy=-1.0784658786228658 pbc="F F F"
Rb       0.00000000       0.00000000       0.00000000       0.00000000       0.00000000      -0.69892102
Rb       0.00000000       0.00000000       3.02020202       0.00000000       0.00000000       0.69892102
2
Properties=species:S:1:pos:R:3:forces:R:3 energy=-1.1142282083754527 pbc="F F F"
Rb       0.00000000       0.00000000       0.00000000       0.00000000       0.00000000      -0.50278038
Rb       0.00000000       0.00000000       3.07979798       0.00000000       0.00000000       0.50278038
2
Properties=species:S:1:pos:R:3:forces:R:3 energy=-1.1386834367155318 pbc="F F F"
Rb       0.00000000       0.00000000       0.00000000       0.00000000       0.00000000      -0.32120103
Rb       0.00000000       0.00000000       3.13939394       0.00000000       0.00000000       0.32120103
2
Properties=species:S:1:pos:R:3:forces:R:3 energy=-1.1529967077355767 pbc="F F F"
Rb       0.00000000       0.00000000       0.00000000       0.00000000       0.00000000      -0.16386430
Rb       0.00000000       0.00000000       3.19898990       0.00000000       0.00000000       0.16386430
2
Properties=species:S:1:pos:R:3:forces:R:3 energy=-1.1588388576699784 pbc="F F F"
Rb       0.00000000       0.00000000       0.00000000       0.00000000       0.00000000      -0.03783142
Rb       0.00000000       0.00000000       3.25858586       0.00000000       0.00000000       0.03783142
2
Properties=species:S:1:pos:R:3:forces:R:3 energy=-1.1581948439828287 pbc="F F F"
Rb       0.00000000       0.00000000       0.00000000       0.00000000       0.00000000       0.05365251
Rb       0.00000000       0.00000000       3.31818182       0.00000000       0.00000000      -0.05365251
2
Properties=species:S:1:pos:R:3:forces:R:3 energy=-1.153112364654477 pbc="F F F"
Rb       0.00000000       0.00000000       0.00000000       0.00000000       0.00000000       0.11163355
Rb       0.00000000       0.00000000       3.37777778       0.00000000       0.00000000      -0.11163355
2
Properties=species:S:1:pos:R:3:forces:R:3 energy=-1.1454600748158337 pbc="F F F"
Rb       0.00000000       0.00000000       0.00000000       0.00000000       0.00000000       0.14092574
Rb       0.00000000       0.00000000       3.43737374       0.00000000       0.00000000      -0.14092574
2
Properties=species:S:1:pos:R:3:forces:R:3 energy=-1.1367458527704273 pbc="F F F"
Rb       0.00000000       0.00000000       0.00000000       0.00000000       0.00000000       0.14856078
Rb       0.00000000       0.00000000       3.49696970       0.00000000       0.00000000      -0.14856078
2
Properties=species:S:1:pos:R:3:forces:R:3 energy=-1.1280355962934632 pbc="F F F"
Rb       0.00000000       0.00000000       0.00000000       0.00000000       0.00000000       0.14192303
Rb       0.00000000       0.00000000       3.55656566       0.00000000       0.00000000      -0.14192303
2
Properties=species:S:1:pos:R:3:forces:R:3 energy=-1.1199855726988033 pbc="F F F"
Rb       0.00000000       0.00000000       0.00000000       0.00000000       0.00000000       0.12737808
Rb       0.00000000       0.00000000       3.61616162       0.00000000       0.00000000      -0.12737808
2
Properties=species:S:1:pos:R:3:forces:R:3 energy=-1.1129131289546026 pbc="F F F"
Rb       0.00000000       0.00000000       0.00000000       0.00000000       0.00000000       0.10978454
Rb       0.00000000       0.00000000       3.67575758       0.00000000       0.00000000      -0.10978454
2
Properties=species:S:1:pos:R:3:forces:R:3 energy=-1.1068891184804872 pbc="F F F"
Rb       0.00000000       0.00000000       0.00000000       0.00000000       0.00000000       0.09270337
Rb       0.00000000       0.00000000       3.73535354       0.00000000       0.00000000      -0.09270337
2
Properties=species:S:1:pos:R:3:forces:R:3 energy=-1.1017989980763367 pbc="F F F"
Rb       0.00000000       0.00000000       0.00000000       0.00000000       0.00000000       0.07886323
Rb       0.00000000       0.00000000       3.79494949       0.00000000       0.00000000      -0.07886323
2
Properties=species:S:1:pos:R:3:forces:R:3 energy=-1.0973803008208909 pbc="F F F"
Rb       0.00000000       0.00000000       0.00000000       0.00000000       0.00000000       0.07049803
Rb       0.00000000       0.00000000       3.85454545       0.00000000       0.00000000      -0.07049803
2
Properties=species:S:1:pos:R:3:forces:R:3 energy=-1.0932511124207938 pbc="F F F"
Rb       0.00000000       0.00000000       0.00000000       0.00000000       0.00000000       0.06939472
Rb       0.00000000       0.00000000       3.91414141       0.00000000       0.00000000      -0.06939472
2
Properties=species:S:1:pos:R:3:forces:R:3 energy=-1.0889427436434378 pbc="F F F"
Rb       0.00000000       0.00000000       0.00000000       0.00000000       0.00000000       0.07661939
Rb       0.00000000       0.00000000       3.97373737       0.00000000       0.00000000      -0.07661939
2
Properties=species:S:1:pos:R:3:forces:R:3 energy=-1.0839528223843653 pbc="F F F"
Rb       0.00000000       0.00000000       0.00000000       0.00000000       0.00000000       0.09216514
Rb       0.00000000       0.00000000       4.03333333       0.00000000       0.00000000      -0.09216514
2
Properties=species:S:1:pos:R:3:forces:R:3 energy=-1.0778161411672091 pbc="F F F"
Rb       0.00000000       0.00000000       0.00000000       0.00000000       0.00000000       0.11479150
Rb       0.00000000       0.00000000       4.09292929       0.00000000       0.00000000      -0.11479150
2
Properties=species:S:1:pos:R:3:forces:R:3 energy=-1.0701747810523818 pbc="F F F"
Rb       0.00000000       0.00000000       0.00000000       0.00000000       0.00000000       0.14223710
Rb       0.00000000       0.00000000       4.15252525       0.00000000       0.00000000      -0.14223710
2
Properties=species:S:1:pos:R:3:forces:R:3 energy=-1.0608209183635187 pbc="F F F"
Rb       0.00000000       0.00000000       0.00000000       0.00000000       0.00000000       0.17178874
Rb       0.00000000       0.00000000       4.21212121       0.00000000       0.00000000      -0.17178874
2
Properties=species:S:1:pos:R:3:forces:R:3 energy=-1.049706798510172 pbc="F F F"
Rb       0.00000000       0.00000000       0.00000000       0.00000000       0.00000000       0.20095630
Rb       0.00000000       0.00000000       4.27171717       0.00000000       0.00000000      -0.20095630
2
Properties=species:S:1:pos:R:3:forces:R:3 energy=-1.0369117274461208 pbc="F F F"
Rb       0.00000000       0.00000000       0.00000000       0.00000000       0.00000000       0.22799031
Rb       0.00000000       0.00000000       4.33131313       0.00000000       0.00000000      -0.22799031
2
Properties=species:S:1:pos:R:3:forces:R:3 energy=-1.022590960994797 pbc="F F F"
Rb       0.00000000       0.00000000       0.00000000       0.00000000       0.00000000       0.25210464
Rb       0.00000000       0.00000000       4.39090909       0.00000000       0.00000000      -0.25210464
2
Properties=species:S:1:pos:R:3:forces:R:3 energy=-1.0069192051742668 pbc="F F F"
Rb       0.00000000       0.00000000       0.00000000       0.00000000       0.00000000       0.27339226
Rb       0.00000000       0.00000000       4.45050505       0.00000000       0.00000000      -0.27339226
2
Properties=species:S:1:pos:R:3:forces:R:3 energy=-0.9900472658223338 pbc="F F F"
Rb       0.00000000       0.00000000       0.00000000       0.00000000       0.00000000       0.29255739
Rb       0.00000000       0.00000000       4.51010101       0.00000000       0.00000000      -0.29255739
2
Properties=species:S:1:pos:R:3:forces:R:3 energy=-0.9720717728381697 pbc="F F F"
Rb       0.00000000       0.00000000       0.00000000       0.00000000       0.00000000       0.31054795
Rb       0.00000000       0.00000000       4.56969697       0.00000000       0.00000000      -0.31054795
2
Properties=species:S:1:pos:R:3:forces:R:3 energy=-0.9530397913488214 pbc="F F F"
Rb       0.00000000       0.00000000       0.00000000       0.00000000       0.00000000       0.32813406
Rb       0.00000000       0.00000000       4.62929293       0.00000000       0.00000000      -0.32813406
2
Properties=species:S:1:pos:R:3:forces:R:3 energy=-0.9329653656049561 pbc="F F F"
Rb       0.00000000       0.00000000       0.00000000       0.00000000       0.00000000       0.34549639
Rb       0.00000000       0.00000000       4.68888889       0.00000000       0.00000000      -0.34549639
2
Properties=species:S:1:pos:R:3:forces:R:3 energy=-0.9118775125709361 pbc="F F F"
Rb       0.00000000       0.00000000       0.00000000       0.00000000       0.00000000       0.36190307
Rb       0.00000000       0.00000000       4.74848485       0.00000000       0.00000000      -0.36190307
2
Properties=species:S:1:pos:R:3:forces:R:3 energy=-0.8898801340671091 pbc="F F F"
Rb       0.00000000       0.00000000       0.00000000       0.00000000       0.00000000       0.37576428
Rb       0.00000000       0.00000000       4.80808081       0.00000000       0.00000000      -0.37576428
2
Properties=species:S:1:pos:R:3:forces:R:3 energy=-0.8671723147284969 pbc="F F F"
Rb       0.00000000       0.00000000       0.00000000       0.00000000       0.00000000       0.38551393
Rb       0.00000000       0.00000000       4.86767677       0.00000000       0.00000000      -0.38551393
2
Properties=species:S:1:pos:R:3:forces:R:3 energy=-0.8440062803552726 pbc="F F F"
Rb       0.00000000       0.00000000       0.00000000       0.00000000       0.00000000       0.39149144
Rb       0.00000000       0.00000000       4.92727273       0.00000000       0.00000000      -0.39149144
2
Properties=species:S:1:pos:R:3:forces:R:3 energy=-0.8205045772097048 pbc="F F F"
Rb       0.00000000       0.00000000       0.00000000       0.00000000       0.00000000       0.39780843
Rb       0.00000000       0.00000000       4.98686869       0.00000000       0.00000000      -0.39780843
2
Properties=species:S:1:pos:R:3:forces:R:3 energy=-0.7964505429396109 pbc="F F F"
Rb       0.00000000       0.00000000       0.00000000       0.00000000       0.00000000       0.41130918
Rb       0.00000000       0.00000000       5.04646465       0.00000000       0.00000000      -0.41130918
2
Properties=species:S:1:pos:R:3:forces:R:3 energy=-0.7712436175646824 pbc="F F F"
Rb       0.00000000       0.00000000       0.00000000       0.00000000       0.00000000       0.43657663
Rb       0.00000000       0.00000000       5.10606061       0.00000000       0.00000000      -0.43657663
2
Properties=species:S:1:pos:R:3:forces:R:3 energy=-0.7442211695554692 pbc="F F F"
Rb       0.00000000       0.00000000       0.00000000       0.00000000       0.00000000       0.47096410
Rb       0.00000000       0.00000000       5.16565657       0.00000000       0.00000000      -0.47096410
2
Properties=species:S:1:pos:R:3:forces:R:3 energy=-0.715106526785773 pbc="F F F"
Rb       0.00000000       0.00000000       0.00000000       0.00000000       0.00000000       0.50521898
Rb       0.00000000       0.00000000       5.22525253       0.00000000       0.00000000      -0.50521898
2
Properties=species:S:1:pos:R:3:forces:R:3 energy=-0.6842233481737277 pbc="F F F"
Rb       0.00000000       0.00000000       0.00000000       0.00000000       0.00000000       0.52870131
Rb       0.00000000       0.00000000       5.28484848       0.00000000       0.00000000      -0.52870131
2
Properties=species:S:1:pos:R:3:forces:R:3 energy=-0.6524521836797048 pbc="F F F"
Rb       0.00000000       0.00000000       0.00000000       0.00000000       0.00000000       0.53405964
Rb       0.00000000       0.00000000       5.34444444       0.00000000       0.00000000      -0.53405964
2
Properties=species:S:1:pos:R:3:forces:R:3 energy=-0.6209798610850553 pbc="F F F"
Rb       0.00000000       0.00000000       0.00000000       0.00000000       0.00000000       0.51865208
Rb       0.00000000       0.00000000       5.40404040       0.00000000       0.00000000      -0.51865208
2
Properties=species:S:1:pos:R:3:forces:R:3 energy=-0.5910137735365518 pbc="F F F"
Rb       0.00000000       0.00000000       0.00000000       0.00000000       0.00000000       0.48377010
Rb       0.00000000       0.00000000       5.46363636       0.00000000       0.00000000      -0.48377010
2
Properties=species:S:1:pos:R:3:forces:R:3 energy=-0.563640281491817 pbc="F F F"
Rb       0.00000000       0.00000000       0.00000000       0.00000000       0.00000000       0.43315914
Rb       0.00000000       0.00000000       5.52323232       0.00000000       0.00000000      -0.43315914
2
Properties=species:S:1:pos:R:3:forces:R:3 energy=-0.5396100100970533 pbc="F F F"
Rb       0.00000000       0.00000000       0.00000000       0.00000000       0.00000000       0.37180969
Rb       0.00000000       0.00000000       5.58282828       0.00000000       0.00000000      -0.37180969
2
Properties=species:S:1:pos:R:3:forces:R:3 energy=-0.5194311841588741 pbc="F F F"
Rb       0.00000000       0.00000000       0.00000000       0.00000000       0.00000000       0.30503687
Rb       0.00000000       0.00000000       5.64242424       0.00000000       0.00000000      -0.30503687
2
Properties=species:S:1:pos:R:3:forces:R:3 energy=-0.5032472281989057 pbc="F F F"
Rb       0.00000000       0.00000000       0.00000000       0.00000000       0.00000000       0.23806794
Rb       0.00000000       0.00000000       5.70202020       0.00000000       0.00000000      -0.23806794
2
Properties=species:S:1:pos:R:3:forces:R:3 energy=-0.49096672619963505 pbc="F F F"
Rb       0.00000000       0.00000000       0.00000000       0.00000000       0.00000000       0.17564426
Rb       0.00000000       0.00000000       5.76161616       0.00000000       0.00000000      -0.17564426
2
Properties=species:S:1:pos:R:3:forces:R:3 energy=-0.4821445732281005 pbc="F F F"
Rb       0.00000000       0.00000000       0.00000000       0.00000000       0.00000000       0.12196927
Rb       0.00000000       0.00000000       5.82121212       0.00000000       0.00000000      -0.12196927
2
Properties=species:S:1:pos:R:3:forces:R:3 energy=-0.47618894654250893 pbc="F F F"
Rb       0.00000000       0.00000000       0.00000000       0.00000000       0.00000000       0.08064166
Rb       0.00000000       0.00000000       5.88080808       0.00000000       0.00000000      -0.08064166
2
Properties=species:S:1:pos:R:3:forces:R:3 energy=-0.47222458959318714 pbc="F F F"
Rb       0.00000000       0.00000000       0.00000000       0.00000000       0.00000000       0.05462036
Rb       0.00000000       0.00000000       5.94040404       0.00000000       0.00000000      -0.05462036
2
Properties=species:S:1:pos:R:3:forces:R:3 energy=-0.4693161921769455 pbc="F F F"
Rb       0.00000000       0.00000000       0.00000000       0.00000000       0.00000000       0.04632730
Rb       0.00000000       0.00000000       6.00000000       0.00000000       0.00000000      -0.04632730
