2
Properties=species:S:1:pos:R:3:forces:R:3 energy=17096.543941905707 pbc="F F F"
Re       0.00000000       0.00000000       0.00000000       0.00000000       0.00000000 -278584.46875000
Re       0.00000000       0.00000000       0.18000000       0.00000000       0.00000000  278584.46875000
2
Properties=species:S:1:pos:R:3:forces:R:3 energy=7371.552730968206 pbc="F F F"
Re       0.00000000       0.00000000       0.00000000       0.00000000       0.00000000  -91874.21093750
Re       0.00000000       0.00000000       0.23878788       0.00000000       0.00000000   91874.21093750
2
Properties=species:S:1:pos:R:3:forces:R:3 energy=3915.9035610463307 pbc="F F F"
Re       0.00000000       0.00000000       0.00000000       0.00000000       0.00000000  -35637.35546875
Re       0.00000000       0.00000000       0.29757576       0.00000000       0.00000000   35637.35546875
2
Properties=species:S:1:pos:R:3:forces:R:3 energy=2511.9331020619557 pbc="F F F"
Re       0.00000000       0.00000000       0.00000000       0.00000000       0.00000000  -15290.60449219
Re       0.00000000       0.00000000       0.35636364       0.00000000       0.00000000   15290.60449219
2
Properties=species:S:1:pos:R:3:forces:R:3 energy=1889.222774919854 pbc="F F F"
Re       0.00000000       0.00000000       0.00000000       0.00000000       0.00000000   -7060.47119141
Re       0.00000000       0.00000000       0.41515152       0.00000000       0.00000000    7060.47119141
2
Properties=species:S:1:pos:R:3:forces:R:3 energy=1593.2290005121272 pbc="F F F"
Re       0.00000000       0.00000000       0.00000000       0.00000000       0.00000000   -3485.72802734
Re       0.00000000       0.00000000       0.47393939       0.00000000       0.00000000    3485.72802734
2
Properties=species:S:1:pos:R:3:forces:R:3 energy=1441.5656704466735 pbc="F F F"
Re       0.00000000       0.00000000       0.00000000       0.00000000       0.00000000   -1889.53881836
Re       0.00000000       0.00000000       0.53272727       0.00000000       0.00000000    1889.53881836
2
Properties=species:S:1:pos:R:3:forces:R:3 energy=1352.797604062598 pbc="F F F"
Re       0.00000000       0.00000000       0.00000000       0.00000000       0.00000000   -1244.58386230
Re       0.00000000       0.00000000       0.59151515       0.00000000       0.00000000    1244.58386230
2
Properties=species:S:1:pos:R:3:forces:R:3 energy=1284.5084195334673 pbc="F F F"
Re       0.00000000       0.00000000       0.00000000       0.00000000       0.00000000   -1154.38720703
Re       0.00000000       0.00000000       0.65030303       0.00000000       0.00000000    1154.38720703
2
Properties=species:S:1:pos:R:3:forces:R:3 energy=1209.2851529889256 pbc="F F F"
Re       0.00000000       0.00000000       0.00000000       0.00000000       0.00000000   -1462.85742188
Re       0.00000000       0.00000000       0.70909091       0.00000000       0.00000000    1462.85742188
2
Properties=species:S:1:pos:R:3:forces:R:3 energy=1106.7401091323122 pbc="F F F"
Re       0.00000000       0.00000000       0.00000000       0.00000000       0.00000000   -2063.52441406
Re       0.00000000       0.00000000       0.76787879       0.00000000       0.00000000    2063.52441406
2
Properties=species:S:1:pos:R:3:forces:R:3 energy=964.6323211857589 pbc="F F F"
Re       0.00000000       0.00000000       0.00000000       0.00000000       0.00000000   -2752.54687500
Re       0.00000000       0.00000000       0.82666667       0.00000000       0.00000000    2752.54687500
2
Properties=species:S:1:pos:R:3:forces:R:3 energy=786.9738130782148 pbc="F F F"
Re       0.00000000       0.00000000       0.00000000       0.00000000       0.00000000   -3265.47827148
Re       0.00000000       0.00000000       0.88545455       0.00000000       0.00000000    3265.47827148
2
Properties=species:S:1:pos:R:3:forces:R:3 energy=587.3981297537297 pbc="F F F"
Re       0.00000000       0.00000000       0.00000000       0.00000000       0.00000000   -3497.62573242
Re       0.00000000       0.00000000       0.94424242       0.00000000       0.00000000    3497.62573242
2
Properties=species:S:1:pos:R:3:forces:R:3 energy=387.7552163091733 pbc="F F F"
Re       0.00000000       0.00000000       0.00000000       0.00000000       0.00000000   -3191.33642578
Re       0.00000000       0.00000000       1.00303030       0.00000000       0.00000000    3191.33642578
2
Properties=species:S:1:pos:R:3:forces:R:3 energy=219.11030408996263 pbc="F F F"
Re       0.00000000       0.00000000       0.00000000       0.00000000       0.00000000   -2488.20776367
Re       0.00000000       0.00000000       1.06181818       0.00000000       0.00000000    2488.20776367
2
Properties=species:S:1:pos:R:3:forces:R:3 energy=102.64369862140421 pbc="F F F"
Re       0.00000000       0.00000000       0.00000000       0.00000000       0.00000000   -1565.45617676
Re       0.00000000       0.00000000       1.12060606       0.00000000       0.00000000    1565.45617676
2
Properties=species:S:1:pos:R:3:forces:R:3 energy=45.40679916613328 pbc="F F F"
Re       0.00000000       0.00000000       0.00000000       0.00000000       0.00000000    -601.74169922
Re       0.00000000       0.00000000       1.17939394       0.00000000       0.00000000     601.74169922
2
Properties=species:S:1:pos:R:3:forces:R:3 energy=19.24005415751942 pbc="F F F"
Re       0.00000000       0.00000000       0.00000000       0.00000000       0.00000000    -295.09869385
Re       0.00000000       0.00000000       1.23818182       0.00000000       0.00000000     295.09869385
2
Properties=species:S:1:pos:R:3:forces:R:3 energy=8.24601034764578 pbc="F F F"
Re       0.00000000       0.00000000       0.00000000       0.00000000       0.00000000    -125.80133820
Re       0.00000000       0.00000000       1.29696970       0.00000000       0.00000000     125.80133820
2
Properties=species:S:1:pos:R:3:forces:R:3 energy=2.0918278372163184 pbc="F F F"
Re       0.00000000       0.00000000       0.00000000       0.00000000       0.00000000     -87.54842377
Re       0.00000000       0.00000000       1.35575758       0.00000000       0.00000000      87.54842377
2
Properties=species:S:1:pos:R:3:forces:R:3 energy=-2.249466065264333 pbc="F F F"
Re       0.00000000       0.00000000       0.00000000       0.00000000       0.00000000     -61.53613663
Re       0.00000000       0.00000000       1.41454545       0.00000000       0.00000000      61.53613663
2
Properties=species:S:1:pos:R:3:forces:R:3 energy=-5.314116133993687 pbc="F F F"
Re       0.00000000       0.00000000       0.00000000       0.00000000       0.00000000     -44.09819031
Re       0.00000000       0.00000000       1.47333333       0.00000000       0.00000000      44.09819031
2
Properties=species:S:1:pos:R:3:forces:R:3 energy=-7.558661895323505 pbc="F F F"
Re       0.00000000       0.00000000       0.00000000       0.00000000       0.00000000     -32.90291214
Re       0.00000000       0.00000000       1.53212121       0.00000000       0.00000000      32.90291214
2
Properties=species:S:1:pos:R:3:forces:R:3 energy=-9.216688109705403 pbc="F F F"
Re       0.00000000       0.00000000       0.00000000       0.00000000       0.00000000     -23.62078476
Re       0.00000000       0.00000000       1.59090909       0.00000000       0.00000000      23.62078476
2
Properties=species:S:1:pos:R:3:forces:R:3 energy=-10.358709761869221 pbc="F F F"
Re       0.00000000       0.00000000       0.00000000       0.00000000       0.00000000     -15.56812954
Re       0.00000000       0.00000000       1.64969697       0.00000000       0.00000000      15.56812954
2
Properties=species:S:1:pos:R:3:forces:R:3 energy=-11.098535467872821 pbc="F F F"
Re       0.00000000       0.00000000       0.00000000       0.00000000       0.00000000     -10.07175350
Re       0.00000000       0.00000000       1.70848485       0.00000000       0.00000000      10.07175350
2
Properties=species:S:1:pos:R:3:forces:R:3 energy=-11.59260094078213 pbc="F F F"
Re       0.00000000       0.00000000       0.00000000       0.00000000       0.00000000      -7.08388519
Re       0.00000000       0.00000000       1.76727273       0.00000000       0.00000000       7.08388519
2
Properties=species:S:1:pos:R:3:forces:R:3 energy=-11.96235649391771 pbc="F F F"
Re       0.00000000       0.00000000       0.00000000       0.00000000       0.00000000      -5.68057060
Re       0.00000000       0.00000000       1.82606061       0.00000000       0.00000000       5.68057060
2
Properties=species:S:1:pos:R:3:forces:R:3 energy=-12.274791953101293 pbc="F F F"
Re       0.00000000       0.00000000       0.00000000       0.00000000       0.00000000      -5.01592398
Re       0.00000000       0.00000000       1.88484848       0.00000000       0.00000000       5.01592398
2
Properties=species:S:1:pos:R:3:forces:R:3 energy=-12.555043546709234 pbc="F F F"
Re       0.00000000       0.00000000       0.00000000       0.00000000       0.00000000      -4.50861788
Re       0.00000000       0.00000000       1.94363636       0.00000000       0.00000000       4.50861788
2
Properties=species:S:1:pos:R:3:forces:R:3 energy=-12.800968577628831 pbc="F F F"
Re       0.00000000       0.00000000       0.00000000       0.00000000       0.00000000      -3.80826068
Re       0.00000000       0.00000000       2.00242424       0.00000000       0.00000000       3.80826068
2
Properties=species:S:1:pos:R:3:forces:R:3 energy=-12.996308720422945 pbc="F F F"
Re       0.00000000       0.00000000       0.00000000       0.00000000       0.00000000      -2.78309369
Re       0.00000000       0.00000000       2.06121212       0.00000000       0.00000000       2.78309369
2
Properties=species:S:1:pos:R:3:forces:R:3 energy=-13.122860157056936 pbc="F F F"
Re       0.00000000       0.00000000       0.00000000       0.00000000       0.00000000      -1.48947012
Re       0.00000000       0.00000000       2.12000000       0.00000000       0.00000000       1.48947012
2
Properties=species:S:1:pos:R:3:forces:R:3 energy=-13.169355218667269 pbc="F F F"
Re       0.00000000       0.00000000       0.00000000       0.00000000       0.00000000      -0.08971068
Re       0.00000000       0.00000000       2.17878788       0.00000000       0.00000000       0.08971068
2
Properties=species:S:1:pos:R:3:forces:R:3 energy=-13.134662273179782 pbc="F F F"
Re       0.00000000       0.00000000       0.00000000       0.00000000       0.00000000       1.24823081
Re       0.00000000       0.00000000       2.23757576       0.00000000       0.00000000      -1.24823081
2
Properties=species:S:1:pos:R:3:forces:R:3 energy=-13.026046372084338 pbc="F F F"
Re       0.00000000       0.00000000       0.00000000       0.00000000       0.00000000       2.41193700
Re       0.00000000       0.00000000       2.29636364       0.00000000       0.00000000      -2.41193700
2
Properties=species:S:1:pos:R:3:forces:R:3 energy=-12.855595198887139 pbc="F F F"
Re       0.00000000       0.00000000       0.00000000       0.00000000       0.00000000       3.34601235
Re       0.00000000       0.00000000       2.35515152       0.00000000       0.00000000      -3.34601235
2
Properties=species:S:1:pos:R:3:forces:R:3 energy=-12.637680913459368 pbc="F F F"
Re       0.00000000       0.00000000       0.00000000       0.00000000       0.00000000       4.02276707
Re       0.00000000       0.00000000       2.41393939       0.00000000       0.00000000      -4.02276707
2
Properties=species:S:1:pos:R:3:forces:R:3 energy=-12.388090413092517 pbc="F F F"
Re       0.00000000       0.00000000       0.00000000       0.00000000       0.00000000       4.42023134
Re       0.00000000       0.00000000       2.47272727       0.00000000       0.00000000      -4.42023134
2
Properties=species:S:1:pos:R:3:forces:R:3 energy=-12.123758891785766 pbc="F F F"
Re       0.00000000       0.00000000       0.00000000       0.00000000       0.00000000       4.52292347
Re       0.00000000       0.00000000       2.53151515       0.00000000       0.00000000      -4.52292347
2
Properties=species:S:1:pos:R:3:forces:R:3 energy=-11.861967012607796 pbc="F F F"
Re       0.00000000       0.00000000       0.00000000       0.00000000       0.00000000       4.33796501
Re       0.00000000       0.00000000       2.59030303       0.00000000       0.00000000      -4.33796501
2
Properties=species:S:1:pos:R:3:forces:R:3 energy=-11.618503694573999 pbc="F F F"
Re       0.00000000       0.00000000       0.00000000       0.00000000       0.00000000       3.91026545
Re       0.00000000       0.00000000       2.64909091       0.00000000       0.00000000      -3.91026545
2
Properties=species:S:1:pos:R:3:forces:R:3 energy=-11.405330088432894 pbc="F F F"
Re       0.00000000       0.00000000       0.00000000       0.00000000       0.00000000       3.32447696
Re       0.00000000       0.00000000       2.70787879       0.00000000       0.00000000      -3.32447696
2
Properties=species:S:1:pos:R:3:forces:R:3 energy=-11.2285726718692 pbc="F F F"
Re       0.00000000       0.00000000       0.00000000       0.00000000       0.00000000       2.69044685
Re       0.00000000       0.00000000       2.76666667       0.00000000       0.00000000      -2.69044685
2
Properties=species:S:1:pos:R:3:forces:R:3 energy=-11.087779785372152 pbc="F F F"
Re       0.00000000       0.00000000       0.00000000       0.00000000       0.00000000       2.11751485
Re       0.00000000       0.00000000       2.82545455       0.00000000       0.00000000      -2.11751485
2
Properties=species:S:1:pos:R:3:forces:R:3 energy=-10.976821547041943 pbc="F F F"
Re       0.00000000       0.00000000       0.00000000       0.00000000       0.00000000       1.68455088
Re       0.00000000       0.00000000       2.88424242       0.00000000       0.00000000      -1.68455088
2
Properties=species:S:1:pos:R:3:forces:R:3 energy=-10.88647991037583 pbc="F F F"
Re       0.00000000       0.00000000       0.00000000       0.00000000       0.00000000       1.41511440
Re       0.00000000       0.00000000       2.94303030       0.00000000       0.00000000      -1.41511440
2
Properties=species:S:1:pos:R:3:forces:R:3 energy=-10.807704674821368 pbc="F F F"
Re       0.00000000       0.00000000       0.00000000       0.00000000       0.00000000       1.28484178
Re       0.00000000       0.00000000       3.00181818       0.00000000       0.00000000      -1.28484178
2
Properties=species:S:1:pos:R:3:forces:R:3 energy=-10.733440372045148 pbc="F F F"
Re       0.00000000       0.00000000       0.00000000       0.00000000       0.00000000       1.25542963
Re       0.00000000       0.00000000       3.06060606       0.00000000       0.00000000      -1.25542963
2
Properties=species:S:1:pos:R:3:forces:R:3 energy=-10.658808283388378 pbc="F F F"
Re       0.00000000       0.00000000       0.00000000       0.00000000       0.00000000       1.29193020
Re       0.00000000       0.00000000       3.11939394       0.00000000       0.00000000      -1.29193020
2
Properties=species:S:1:pos:R:3:forces:R:3 energy=-10.580852606245239 pbc="F F F"
Re       0.00000000       0.00000000       0.00000000       0.00000000       0.00000000       1.36365342
Re       0.00000000       0.00000000       3.17818182       0.00000000       0.00000000      -1.36365342
2
Properties=species:S:1:pos:R:3:forces:R:3 energy=-10.498317191115019 pbc="F F F"
Re       0.00000000       0.00000000       0.00000000       0.00000000       0.00000000       1.44357884
Re       0.00000000       0.00000000       3.23696970       0.00000000       0.00000000      -1.44357884
2
Properties=species:S:1:pos:R:3:forces:R:3 energy=-10.411420690717739 pbc="F F F"
Re       0.00000000       0.00000000       0.00000000       0.00000000       0.00000000       1.50846875
Re       0.00000000       0.00000000       3.29575758       0.00000000       0.00000000      -1.50846875
2
Properties=species:S:1:pos:R:3:forces:R:3 energy=-10.321623552956028 pbc="F F F"
Re       0.00000000       0.00000000       0.00000000       0.00000000       0.00000000       1.53954268
Re       0.00000000       0.00000000       3.35454545       0.00000000       0.00000000      -1.53954268
2
Properties=species:S:1:pos:R:3:forces:R:3 energy=-10.231324290750559 pbc="F F F"
Re       0.00000000       0.00000000       0.00000000       0.00000000       0.00000000       1.52411711
Re       0.00000000       0.00000000       3.41333333       0.00000000       0.00000000      -1.52411711
2
Properties=species:S:1:pos:R:3:forces:R:3 energy=-10.143425166457018 pbc="F F F"
Re       0.00000000       0.00000000       0.00000000       0.00000000       0.00000000       1.45794857
Re       0.00000000       0.00000000       3.47212121       0.00000000       0.00000000      -1.45794857
2
Properties=species:S:1:pos:R:3:forces:R:3 energy=-10.060794088140801 pbc="F F F"
Re       0.00000000       0.00000000       0.00000000       0.00000000       0.00000000       1.34676743
Re       0.00000000       0.00000000       3.53090909       0.00000000       0.00000000      -1.34676743
2
Properties=species:S:1:pos:R:3:forces:R:3 energy=-9.985677180884295 pbc="F F F"
Re       0.00000000       0.00000000       0.00000000       0.00000000       0.00000000       1.20523143
Re       0.00000000       0.00000000       3.58969697       0.00000000       0.00000000      -1.20523143
2
Properties=species:S:1:pos:R:3:forces:R:3 energy=-9.919297983812575 pbc="F F F"
Re       0.00000000       0.00000000       0.00000000       0.00000000       0.00000000       1.05285776
Re       0.00000000       0.00000000       3.64848485       0.00000000       0.00000000      -1.05285776
2
Properties=species:S:1:pos:R:3:forces:R:3 energy=-9.861729242590442 pbc="F F F"
Re       0.00000000       0.00000000       0.00000000       0.00000000       0.00000000       0.90834254
Re       0.00000000       0.00000000       3.70727273       0.00000000       0.00000000      -0.90834254
2
Properties=species:S:1:pos:R:3:forces:R:3 energy=-9.812083397195597 pbc="F F F"
Re       0.00000000       0.00000000       0.00000000       0.00000000       0.00000000       0.78480148
Re       0.00000000       0.00000000       3.76606061       0.00000000       0.00000000      -0.78480148
2
Properties=species:S:1:pos:R:3:forces:R:3 energy=-9.76893133997819 pbc="F F F"
Re       0.00000000       0.00000000       0.00000000       0.00000000       0.00000000       0.68777263
Re       0.00000000       0.00000000       3.82484848       0.00000000       0.00000000      -0.68777263
2
Properties=species:S:1:pos:R:3:forces:R:3 energy=-9.730720308745099 pbc="F F F"
Re       0.00000000       0.00000000       0.00000000       0.00000000       0.00000000       0.61597598
Re       0.00000000       0.00000000       3.88363636       0.00000000       0.00000000      -0.61597598
2
Properties=species:S:1:pos:R:3:forces:R:3 energy=-9.696121844836886 pbc="F F F"
Re       0.00000000       0.00000000       0.00000000       0.00000000       0.00000000       0.56379259
Re       0.00000000       0.00000000       3.94242424       0.00000000       0.00000000      -0.56379259
2
Properties=species:S:1:pos:R:3:forces:R:3 energy=-9.664192029419889 pbc="F F F"
Re       0.00000000       0.00000000       0.00000000       0.00000000       0.00000000       0.52393383
Re       0.00000000       0.00000000       4.00121212       0.00000000       0.00000000      -0.52393383
2
Properties=species:S:1:pos:R:3:forces:R:3 energy=-9.634415580587964 pbc="F F F"
Re       0.00000000       0.00000000       0.00000000       0.00000000       0.00000000       0.48945495
Re       0.00000000       0.00000000       4.06000000       0.00000000       0.00000000      -0.48945495
2
Properties=species:S:1:pos:R:3:forces:R:3 energy=-9.606646649527145 pbc="F F F"
Re       0.00000000       0.00000000       0.00000000       0.00000000       0.00000000       0.45488334
Re       0.00000000       0.00000000       4.11878788       0.00000000       0.00000000      -0.45488334
2
Properties=species:S:1:pos:R:3:forces:R:3 energy=-9.58100488268644 pbc="F F F"
Re       0.00000000       0.00000000       0.00000000       0.00000000       0.00000000       0.41662353
Re       0.00000000       0.00000000       4.17757576       0.00000000       0.00000000      -0.41662353
2
Properties=species:S:1:pos:R:3:forces:R:3 energy=-9.557767846649403 pbc="F F F"
Re       0.00000000       0.00000000       0.00000000       0.00000000       0.00000000       0.37298143
Re       0.00000000       0.00000000       4.23636364       0.00000000       0.00000000      -0.37298143
2
Properties=species:S:1:pos:R:3:forces:R:3 energy=-9.537258152440016 pbc="F F F"
Re       0.00000000       0.00000000       0.00000000       0.00000000       0.00000000       0.32394686
Re       0.00000000       0.00000000       4.29515152       0.00000000       0.00000000      -0.32394686
2
Properties=species:S:1:pos:R:3:forces:R:3 energy=-9.519759041010548 pbc="F F F"
Re       0.00000000       0.00000000       0.00000000       0.00000000       0.00000000       0.27089551
Re       0.00000000       0.00000000       4.35393939       0.00000000       0.00000000      -0.27089551
2
Properties=species:S:1:pos:R:3:forces:R:3 energy=-9.505440639872635 pbc="F F F"
Re       0.00000000       0.00000000       0.00000000       0.00000000       0.00000000       0.21617141
Re       0.00000000       0.00000000       4.41272727       0.00000000       0.00000000      -0.21617141
2
Properties=species:S:1:pos:R:3:forces:R:3 energy=-9.49431906280762 pbc="F F F"
Re       0.00000000       0.00000000       0.00000000       0.00000000       0.00000000       0.16265434
Re       0.00000000       0.00000000       4.47151515       0.00000000       0.00000000      -0.16265434
2
Properties=species:S:1:pos:R:3:forces:R:3 energy=-9.486234469021632 pbc="F F F"
Re       0.00000000       0.00000000       0.00000000       0.00000000       0.00000000       0.11331405
Re       0.00000000       0.00000000       4.53030303       0.00000000       0.00000000      -0.11331405
2
Properties=species:S:1:pos:R:3:forces:R:3 energy=-9.480861445857114 pbc="F F F"
Re       0.00000000       0.00000000       0.00000000       0.00000000       0.00000000       0.07081982
Re       0.00000000       0.00000000       4.58909091       0.00000000       0.00000000      -0.07081982
2
Properties=species:S:1:pos:R:3:forces:R:3 energy=-9.477732910839357 pbc="F F F"
Re       0.00000000       0.00000000       0.00000000       0.00000000       0.00000000       0.03722765
Re       0.00000000       0.00000000       4.64787879       0.00000000       0.00000000      -0.03722765
2
Properties=species:S:1:pos:R:3:forces:R:3 energy=-9.476284810824305 pbc="F F F"
Re       0.00000000       0.00000000       0.00000000       0.00000000       0.00000000       0.01376237
Re       0.00000000       0.00000000       4.70666667       0.00000000       0.00000000      -0.01376237
2
Properties=species:S:1:pos:R:3:forces:R:3 energy=-9.475910373728633 pbc="F F F"
Re       0.00000000       0.00000000       0.00000000       0.00000000       0.00000000       0.00069004
Re       0.00000000       0.00000000       4.76545455       0.00000000       0.00000000      -0.00069004
2
Properties=species:S:1:pos:R:3:forces:R:3 energy=-9.47601355547316 pbc="F F F"
Re       0.00000000       0.00000000       0.00000000       0.00000000       0.00000000      -0.00269932
Re       0.00000000       0.00000000       4.82424242       0.00000000       0.00000000       0.00269932
2
Properties=species:S:1:pos:R:3:forces:R:3 energy=-9.476068072755801 pbc="F F F"
Re       0.00000000       0.00000000       0.00000000       0.00000000       0.00000000       0.00204269
Re       0.00000000       0.00000000       4.88303030       0.00000000       0.00000000      -0.00204269
2
Properties=species:S:1:pos:R:3:forces:R:3 energy=-9.475656335803961 pbc="F F F"
Re       0.00000000       0.00000000       0.00000000       0.00000000       0.00000000       0.01278683
Re       0.00000000       0.00000000       4.94181818       0.00000000       0.00000000      -0.01278683
2
Properties=species:S:1:pos:R:3:forces:R:3 energy=-9.474493274393339 pbc="F F F"
Re       0.00000000       0.00000000       0.00000000       0.00000000       0.00000000       0.02716233
Re       0.00000000       0.00000000       5.00060606       0.00000000       0.00000000      -0.02716233
2
Properties=species:S:1:pos:R:3:forces:R:3 energy=-9.472435849248512 pbc="F F F"
Re       0.00000000       0.00000000       0.00000000       0.00000000       0.00000000       0.04289129
Re       0.00000000       0.00000000       5.05939394       0.00000000       0.00000000      -0.04289129
2
Properties=species:S:1:pos:R:3:forces:R:3 energy=-9.469462863323367 pbc="F F F"
Re       0.00000000       0.00000000       0.00000000       0.00000000       0.00000000       0.05802809
Re       0.00000000       0.00000000       5.11818182       0.00000000       0.00000000      -0.05802809
2
Properties=species:S:1:pos:R:3:forces:R:3 energy=-9.465654921969156 pbc="F F F"
Re       0.00000000       0.00000000       0.00000000       0.00000000       0.00000000       0.07108116
Re       0.00000000       0.00000000       5.17696970       0.00000000       0.00000000      -0.07108116
2
Properties=species:S:1:pos:R:3:forces:R:3 energy=-9.461166722526357 pbc="F F F"
Re       0.00000000       0.00000000       0.00000000       0.00000000       0.00000000       0.08103973
Re       0.00000000       0.00000000       5.23575758       0.00000000       0.00000000      -0.08103973
2
Properties=species:S:1:pos:R:3:forces:R:3 energy=-9.456198390242198 pbc="F F F"
Re       0.00000000       0.00000000       0.00000000       0.00000000       0.00000000       0.08732992
Re       0.00000000       0.00000000       5.29454545       0.00000000       0.00000000      -0.08732992
2
Properties=species:S:1:pos:R:3:forces:R:3 energy=-9.450973550097022 pbc="F F F"
Re       0.00000000       0.00000000       0.00000000       0.00000000       0.00000000       0.08975925
Re       0.00000000       0.00000000       5.35333333       0.00000000       0.00000000      -0.08975925
2
Properties=species:S:1:pos:R:3:forces:R:3 energy=-9.445718247766845 pbc="F F F"
Re       0.00000000       0.00000000       0.00000000       0.00000000       0.00000000       0.08844893
Re       0.00000000       0.00000000       5.41212121       0.00000000       0.00000000      -0.08844893
2
Properties=species:S:1:pos:R:3:forces:R:3 energy=-9.440640033728746 pbc="F F F"
Re       0.00000000       0.00000000       0.00000000       0.00000000       0.00000000       0.08379927
Re       0.00000000       0.00000000       5.47090909       0.00000000       0.00000000      -0.08379927
2
Properties=species:S:1:pos:R:3:forces:R:3 energy=-9.435918394839486 pbc="F F F"
Re       0.00000000       0.00000000       0.00000000       0.00000000       0.00000000       0.07642797
Re       0.00000000       0.00000000       5.52969697       0.00000000       0.00000000      -0.07642797
2
Properties=species:S:1:pos:R:3:forces:R:3 energy=-9.43169234864983 pbc="F F F"
Re       0.00000000       0.00000000       0.00000000       0.00000000       0.00000000       0.06709554
Re       0.00000000       0.00000000       5.58848485       0.00000000       0.00000000      -0.06709554
2
Properties=species:S:1:pos:R:3:forces:R:3 energy=-9.428051930027795 pbc="F F F"
Re       0.00000000       0.00000000       0.00000000       0.00000000       0.00000000       0.05666238
Re       0.00000000       0.00000000       5.64727273       0.00000000       0.00000000      -0.05666238
2
Properties=species:S:1:pos:R:3:forces:R:3 energy=-9.425035269947076 pbc="F F F"
Re       0.00000000       0.00000000       0.00000000       0.00000000       0.00000000       0.04599560
Re       0.00000000       0.00000000       5.70606061       0.00000000       0.00000000      -0.04599560
2
Properties=species:S:1:pos:R:3:forces:R:3 energy=-9.422629625189098 pbc="F F F"
Re       0.00000000       0.00000000       0.00000000       0.00000000       0.00000000       0.03590657
Re       0.00000000       0.00000000       5.76484848       0.00000000       0.00000000      -0.03590657
2
Properties=species:S:1:pos:R:3:forces:R:3 energy=-9.420786694152868 pbc="F F F"
Re       0.00000000       0.00000000       0.00000000       0.00000000       0.00000000       0.02711078
Re       0.00000000       0.00000000       5.82363636       0.00000000       0.00000000      -0.02711078
2
Properties=species:S:1:pos:R:3:forces:R:3 energy=-9.419408264222909 pbc="F F F"
Re       0.00000000       0.00000000       0.00000000       0.00000000       0.00000000       0.02018110
Re       0.00000000       0.00000000       5.88242424       0.00000000       0.00000000      -0.02018110
2
Properties=species:S:1:pos:R:3:forces:R:3 energy=-9.418369183900134 pbc="F F F"
Re       0.00000000       0.00000000       0.00000000       0.00000000       0.00000000       0.01554492
Re       0.00000000       0.00000000       5.94121212       0.00000000       0.00000000      -0.01554492
2
Properties=species:S:1:pos:R:3:forces:R:3 energy=-9.417528838571862 pbc="F F F"
Re       0.00000000       0.00000000       0.00000000       0.00000000       0.00000000       0.01352419
Re       0.00000000       0.00000000       6.00000000       0.00000000       0.00000000      -0.01352419
