2
Properties=species:S:1:pos:R:3:forces:R:3 energy=7860.51324324633 pbc="F F F"
Rh       0.00000000       0.00000000       0.00000000       0.00000000       0.00000000 -129517.86718750
Rh       0.00000000       0.00000000       0.18000000       0.00000000       0.00000000  129517.86718750
2
Properties=species:S:1:pos:R:3:forces:R:3 energy=3241.2444444182042 pbc="F F F"
Rh       0.00000000       0.00000000       0.00000000       0.00000000       0.00000000  -44992.14062500
Rh       0.00000000       0.00000000       0.23878788       0.00000000       0.00000000   44992.14062500
2
Properties=species:S:1:pos:R:3:forces:R:3 energy=1510.2335801667275 pbc="F F F"
Rh       0.00000000       0.00000000       0.00000000       0.00000000       0.00000000  -18418.75781250
Rh       0.00000000       0.00000000       0.29757576       0.00000000       0.00000000   18418.75781250
2
Properties=species:S:1:pos:R:3:forces:R:3 energy=767.1124253879068 pbc="F F F"
Rh       0.00000000       0.00000000       0.00000000       0.00000000       0.00000000   -8348.20605469
Rh       0.00000000       0.00000000       0.35636364       0.00000000       0.00000000    8348.20605469
2
Properties=species:S:1:pos:R:3:forces:R:3 energy=419.3775010778362 pbc="F F F"
Rh       0.00000000       0.00000000       0.00000000       0.00000000       0.00000000   -4051.38012695
Rh       0.00000000       0.00000000       0.41515152       0.00000000       0.00000000    4051.38012695
2
Properties=species:S:1:pos:R:3:forces:R:3 energy=246.7078081036791 pbc="F F F"
Rh       0.00000000       0.00000000       0.00000000       0.00000000       0.00000000   -2064.57617188
Rh       0.00000000       0.00000000       0.47393939       0.00000000       0.00000000    2064.57617188
2
Properties=species:S:1:pos:R:3:forces:R:3 energy=157.28646719931015 pbc="F F F"
Rh       0.00000000       0.00000000       0.00000000       0.00000000       0.00000000   -1087.46984863
Rh       0.00000000       0.00000000       0.53272727       0.00000000       0.00000000    1087.46984863
2
Properties=species:S:1:pos:R:3:forces:R:3 energy=109.83159513131892 pbc="F F F"
Rh       0.00000000       0.00000000       0.00000000       0.00000000       0.00000000    -579.50244141
Rh       0.00000000       0.00000000       0.59151515       0.00000000       0.00000000     579.50244141
2
Properties=species:S:1:pos:R:3:forces:R:3 energy=84.7551944758533 pbc="F F F"
Rh       0.00000000       0.00000000       0.00000000       0.00000000       0.00000000    -299.86096191
Rh       0.00000000       0.00000000       0.65030303       0.00000000       0.00000000     299.86096191
2
Properties=species:S:1:pos:R:3:forces:R:3 energy=72.2992009882363 pbc="F F F"
Rh       0.00000000       0.00000000       0.00000000       0.00000000       0.00000000    -138.41462708
Rh       0.00000000       0.00000000       0.70909091       0.00000000       0.00000000     138.41462708
2
Properties=species:S:1:pos:R:3:forces:R:3 energy=67.08347248189645 pbc="F F F"
Rh       0.00000000       0.00000000       0.00000000       0.00000000       0.00000000     -49.19975662
Rh       0.00000000       0.00000000       0.76787879       0.00000000       0.00000000      49.19975662
2
Properties=species:S:1:pos:R:3:forces:R:3 energy=65.43841517114116 pbc="F F F"
Rh       0.00000000       0.00000000       0.00000000       0.00000000       0.00000000     -15.06487179
Rh       0.00000000       0.00000000       0.82666667       0.00000000       0.00000000      15.06487179
2
Properties=species:S:1:pos:R:3:forces:R:3 energy=64.43531053976106 pbc="F F F"
Rh       0.00000000       0.00000000       0.00000000       0.00000000       0.00000000     -25.54871750
Rh       0.00000000       0.00000000       0.88545455       0.00000000       0.00000000      25.54871750
2
Properties=species:S:1:pos:R:3:forces:R:3 energy=61.832070307898924 pbc="F F F"
Rh       0.00000000       0.00000000       0.00000000       0.00000000       0.00000000     -66.44844055
Rh       0.00000000       0.00000000       0.94424242       0.00000000       0.00000000      66.44844055
2
Properties=species:S:1:pos:R:3:forces:R:3 energy=56.456289308662555 pbc="F F F"
Rh       0.00000000       0.00000000       0.00000000       0.00000000       0.00000000    -115.81179047
Rh       0.00000000       0.00000000       1.00303030       0.00000000       0.00000000     115.81179047
2
Properties=species:S:1:pos:R:3:forces:R:3 energy=48.48902460706934 pbc="F F F"
Rh       0.00000000       0.00000000       0.00000000       0.00000000       0.00000000    -151.64155579
Rh       0.00000000       0.00000000       1.06181818       0.00000000       0.00000000     151.64155579
2
Properties=species:S:1:pos:R:3:forces:R:3 energy=39.11252725570951 pbc="F F F"
Rh       0.00000000       0.00000000       0.00000000       0.00000000       0.00000000    -163.16735840
Rh       0.00000000       0.00000000       1.12060606       0.00000000       0.00000000     163.16735840
2
Properties=species:S:1:pos:R:3:forces:R:3 energy=29.736778142550435 pbc="F F F"
Rh       0.00000000       0.00000000       0.00000000       0.00000000       0.00000000    -152.88067627
Rh       0.00000000       0.00000000       1.17939394       0.00000000       0.00000000     152.88067627
2
Properties=species:S:1:pos:R:3:forces:R:3 energy=21.368844146332158 pbc="F F F"
Rh       0.00000000       0.00000000       0.00000000       0.00000000       0.00000000    -130.78598022
Rh       0.00000000       0.00000000       1.23818182       0.00000000       0.00000000     130.78598022
2
Properties=species:S:1:pos:R:3:forces:R:3 energy=14.394348397320584 pbc="F F F"
Rh       0.00000000       0.00000000       0.00000000       0.00000000       0.00000000    -106.64050293
Rh       0.00000000       0.00000000       1.29696970       0.00000000       0.00000000     106.64050293
2
Properties=species:S:1:pos:R:3:forces:R:3 energy=8.80465651198866 pbc="F F F"
Rh       0.00000000       0.00000000       0.00000000       0.00000000       0.00000000     -83.71535492
Rh       0.00000000       0.00000000       1.35575758       0.00000000       0.00000000      83.71535492
2
Properties=species:S:1:pos:R:3:forces:R:3 energy=4.518128468553662 pbc="F F F"
Rh       0.00000000       0.00000000       0.00000000       0.00000000       0.00000000     -62.62900543
Rh       0.00000000       0.00000000       1.41454545       0.00000000       0.00000000      62.62900543
2
Properties=species:S:1:pos:R:3:forces:R:3 energy=1.3517012454442177 pbc="F F F"
Rh       0.00000000       0.00000000       0.00000000       0.00000000       0.00000000     -45.96965408
Rh       0.00000000       0.00000000       1.47333333       0.00000000       0.00000000      45.96965408
2
Properties=species:S:1:pos:R:3:forces:R:3 energy=-0.9806313482313326 pbc="F F F"
Rh       0.00000000       0.00000000       0.00000000       0.00000000       0.00000000     -34.03409958
Rh       0.00000000       0.00000000       1.53212121       0.00000000       0.00000000      34.03409958
2
Properties=species:S:1:pos:R:3:forces:R:3 energy=-2.7066435967399936 pbc="F F F"
Rh       0.00000000       0.00000000       0.00000000       0.00000000       0.00000000     -25.00911713
Rh       0.00000000       0.00000000       1.59090909       0.00000000       0.00000000      25.00911713
2
Properties=species:S:1:pos:R:3:forces:R:3 energy=-3.948120617275745 pbc="F F F"
Rh       0.00000000       0.00000000       0.00000000       0.00000000       0.00000000     -17.42087746
Rh       0.00000000       0.00000000       1.64969697       0.00000000       0.00000000      17.42087746
2
Properties=species:S:1:pos:R:3:forces:R:3 energy=-4.781179652969848 pbc="F F F"
Rh       0.00000000       0.00000000       0.00000000       0.00000000       0.00000000     -11.18883991
Rh       0.00000000       0.00000000       1.70848485       0.00000000       0.00000000      11.18883991
2
Properties=species:S:1:pos:R:3:forces:R:3 energy=-5.299055436923353 pbc="F F F"
Rh       0.00000000       0.00000000       0.00000000       0.00000000       0.00000000      -6.74093628
Rh       0.00000000       0.00000000       1.76727273       0.00000000       0.00000000       6.74093628
2
Properties=species:S:1:pos:R:3:forces:R:3 energy=-5.607688790258786 pbc="F F F"
Rh       0.00000000       0.00000000       0.00000000       0.00000000       0.00000000      -4.00919914
Rh       0.00000000       0.00000000       1.82606061       0.00000000       0.00000000       4.00919914
2
Properties=species:S:1:pos:R:3:forces:R:3 energy=-5.794022973256722 pbc="F F F"
Rh       0.00000000       0.00000000       0.00000000       0.00000000       0.00000000      -2.48060489
Rh       0.00000000       0.00000000       1.88484848       0.00000000       0.00000000       2.48060489
2
Properties=species:S:1:pos:R:3:forces:R:3 energy=-5.911927313733526 pbc="F F F"
Rh       0.00000000       0.00000000       0.00000000       0.00000000       0.00000000      -1.60077333
Rh       0.00000000       0.00000000       1.94363636       0.00000000       0.00000000       1.60077333
2
Properties=species:S:1:pos:R:3:forces:R:3 energy=-5.9874854671823226 pbc="F F F"
Rh       0.00000000       0.00000000       0.00000000       0.00000000       0.00000000      -0.99587590
Rh       0.00000000       0.00000000       2.00242424       0.00000000       0.00000000       0.99587590
2
Properties=species:S:1:pos:R:3:forces:R:3 energy=-6.030894697666933 pbc="F F F"
Rh       0.00000000       0.00000000       0.00000000       0.00000000       0.00000000      -0.49087852
Rh       0.00000000       0.00000000       2.06121212       0.00000000       0.00000000       0.49087852
2
Properties=species:S:1:pos:R:3:forces:R:3 energy=-6.046102881518505 pbc="F F F"
Rh       0.00000000       0.00000000       0.00000000       0.00000000       0.00000000      -0.03308870
Rh       0.00000000       0.00000000       2.12000000       0.00000000       0.00000000       0.03308870
2
Properties=species:S:1:pos:R:3:forces:R:3 energy=-6.0354849057274125 pbc="F F F"
Rh       0.00000000       0.00000000       0.00000000       0.00000000       0.00000000       0.38912368
Rh       0.00000000       0.00000000       2.17878788       0.00000000       0.00000000      -0.38912368
2
Properties=species:S:1:pos:R:3:forces:R:3 energy=-6.000829312756568 pbc="F F F"
Rh       0.00000000       0.00000000       0.00000000       0.00000000       0.00000000       0.78702152
Rh       0.00000000       0.00000000       2.23757576       0.00000000       0.00000000      -0.78702152
2
Properties=species:S:1:pos:R:3:forces:R:3 energy=-5.943199905453112 pbc="F F F"
Rh       0.00000000       0.00000000       0.00000000       0.00000000       0.00000000       1.17164910
Rh       0.00000000       0.00000000       2.29636364       0.00000000       0.00000000      -1.17164910
2
Properties=species:S:1:pos:R:3:forces:R:3 energy=-5.863412583632567 pbc="F F F"
Rh       0.00000000       0.00000000       0.00000000       0.00000000       0.00000000       1.53807580
Rh       0.00000000       0.00000000       2.35515152       0.00000000       0.00000000      -1.53807580
2
Properties=species:S:1:pos:R:3:forces:R:3 energy=-5.763258600918847 pbc="F F F"
Rh       0.00000000       0.00000000       0.00000000       0.00000000       0.00000000       1.85818505
Rh       0.00000000       0.00000000       2.41393939       0.00000000       0.00000000      -1.85818505
2
Properties=species:S:1:pos:R:3:forces:R:3 energy=-5.646641429392049 pbc="F F F"
Rh       0.00000000       0.00000000       0.00000000       0.00000000       0.00000000       2.09143496
Rh       0.00000000       0.00000000       2.47272727       0.00000000       0.00000000      -2.09143496
2
Properties=species:S:1:pos:R:3:forces:R:3 energy=-5.519684142729348 pbc="F F F"
Rh       0.00000000       0.00000000       0.00000000       0.00000000       0.00000000       2.20686579
Rh       0.00000000       0.00000000       2.53151515       0.00000000       0.00000000      -2.20686579
2
Properties=species:S:1:pos:R:3:forces:R:3 energy=-5.389535361105629 pbc="F F F"
Rh       0.00000000       0.00000000       0.00000000       0.00000000       0.00000000       2.20280910
Rh       0.00000000       0.00000000       2.59030303       0.00000000       0.00000000      -2.20280910
2
Properties=species:S:1:pos:R:3:forces:R:3 energy=-5.262375439799013 pbc="F F F"
Rh       0.00000000       0.00000000       0.00000000       0.00000000       0.00000000       2.11357403
Rh       0.00000000       0.00000000       2.64909091       0.00000000       0.00000000      -2.11357403
2
Properties=species:S:1:pos:R:3:forces:R:3 energy=-5.141571668890337 pbc="F F F"
Rh       0.00000000       0.00000000       0.00000000       0.00000000       0.00000000       1.99615252
Rh       0.00000000       0.00000000       2.70787879       0.00000000       0.00000000      -1.99615252
2
Properties=species:S:1:pos:R:3:forces:R:3 energy=-5.027383436287316 pbc="F F F"
Rh       0.00000000       0.00000000       0.00000000       0.00000000       0.00000000       1.89184761
Rh       0.00000000       0.00000000       2.76666667       0.00000000       0.00000000      -1.89184761
2
Properties=species:S:1:pos:R:3:forces:R:3 energy=-4.918882035372299 pbc="F F F"
Rh       0.00000000       0.00000000       0.00000000       0.00000000       0.00000000       1.80018401
Rh       0.00000000       0.00000000       2.82545455       0.00000000       0.00000000      -1.80018401
2
Properties=species:S:1:pos:R:3:forces:R:3 energy=-4.815735991974907 pbc="F F F"
Rh       0.00000000       0.00000000       0.00000000       0.00000000       0.00000000       1.70875359
Rh       0.00000000       0.00000000       2.88424242       0.00000000       0.00000000      -1.70875359
2
Properties=species:S:1:pos:R:3:forces:R:3 energy=-4.717915168207372 pbc="F F F"
Rh       0.00000000       0.00000000       0.00000000       0.00000000       0.00000000       1.62056363
Rh       0.00000000       0.00000000       2.94303030       0.00000000       0.00000000      -1.62056363
2
Properties=species:S:1:pos:R:3:forces:R:3 energy=-4.624906840510538 pbc="F F F"
Rh       0.00000000       0.00000000       0.00000000       0.00000000       0.00000000       1.54705393
Rh       0.00000000       0.00000000       3.00181818       0.00000000       0.00000000      -1.54705393
2
Properties=species:S:1:pos:R:3:forces:R:3 energy=-4.535529498024617 pbc="F F F"
Rh       0.00000000       0.00000000       0.00000000       0.00000000       0.00000000       1.49837518
Rh       0.00000000       0.00000000       3.06060606       0.00000000       0.00000000      -1.49837518
2
Properties=species:S:1:pos:R:3:forces:R:3 energy=-4.448140563081418 pbc="F F F"
Rh       0.00000000       0.00000000       0.00000000       0.00000000       0.00000000       1.47979844
Rh       0.00000000       0.00000000       3.11939394       0.00000000       0.00000000      -1.47979844
2
Properties=species:S:1:pos:R:3:forces:R:3 energy=-4.360967060927493 pbc="F F F"
Rh       0.00000000       0.00000000       0.00000000       0.00000000       0.00000000       1.49025559
Rh       0.00000000       0.00000000       3.17818182       0.00000000       0.00000000      -1.49025559
2
Properties=species:S:1:pos:R:3:forces:R:3 energy=-4.272497187384905 pbc="F F F"
Rh       0.00000000       0.00000000       0.00000000       0.00000000       0.00000000       1.52224147
Rh       0.00000000       0.00000000       3.23696970       0.00000000       0.00000000      -1.52224147
2
Properties=species:S:1:pos:R:3:forces:R:3 energy=-4.181809347931243 pbc="F F F"
Rh       0.00000000       0.00000000       0.00000000       0.00000000       0.00000000       1.56335282
Rh       0.00000000       0.00000000       3.29575758       0.00000000       0.00000000      -1.56335282
2
Properties=species:S:1:pos:R:3:forces:R:3 energy=-4.088790877932176 pbc="F F F"
Rh       0.00000000       0.00000000       0.00000000       0.00000000       0.00000000       1.59909487
Rh       0.00000000       0.00000000       3.35454545       0.00000000       0.00000000      -1.59909487
2
Properties=species:S:1:pos:R:3:forces:R:3 energy=-3.994160885483772 pbc="F F F"
Rh       0.00000000       0.00000000       0.00000000       0.00000000       0.00000000       1.61626291
Rh       0.00000000       0.00000000       3.41333333       0.00000000       0.00000000      -1.61626291
2
Properties=species:S:1:pos:R:3:forces:R:3 energy=-3.899301630792436 pbc="F F F"
Rh       0.00000000       0.00000000       0.00000000       0.00000000       0.00000000       1.60585093
Rh       0.00000000       0.00000000       3.47212121       0.00000000       0.00000000      -1.60585093
2
Properties=species:S:1:pos:R:3:forces:R:3 energy=-3.805963566714604 pbc="F F F"
Rh       0.00000000       0.00000000       0.00000000       0.00000000       0.00000000       1.56445765
Rh       0.00000000       0.00000000       3.53090909       0.00000000       0.00000000      -1.56445765
2
Properties=species:S:1:pos:R:3:forces:R:3 energy=-3.7159344707897444 pbc="F F F"
Rh       0.00000000       0.00000000       0.00000000       0.00000000       0.00000000       1.49383891
Rh       0.00000000       0.00000000       3.58969697       0.00000000       0.00000000      -1.49383891
2
Properties=species:S:1:pos:R:3:forces:R:3 energy=-3.6307945790242377 pbc="F F F"
Rh       0.00000000       0.00000000       0.00000000       0.00000000       0.00000000       1.39920175
Rh       0.00000000       0.00000000       3.64848485       0.00000000       0.00000000      -1.39920175
2
Properties=species:S:1:pos:R:3:forces:R:3 energy=-3.551762812243502 pbc="F F F"
Rh       0.00000000       0.00000000       0.00000000       0.00000000       0.00000000       1.28719783
Rh       0.00000000       0.00000000       3.70727273       0.00000000       0.00000000      -1.28719783
2
Properties=species:S:1:pos:R:3:forces:R:3 energy=-3.4796598972399604 pbc="F F F"
Rh       0.00000000       0.00000000       0.00000000       0.00000000       0.00000000       1.16450870
Rh       0.00000000       0.00000000       3.76606061       0.00000000       0.00000000      -1.16450870
2
Properties=species:S:1:pos:R:3:forces:R:3 energy=-3.414934700522698 pbc="F F F"
Rh       0.00000000       0.00000000       0.00000000       0.00000000       0.00000000       1.03718746
Rh       0.00000000       0.00000000       3.82484848       0.00000000       0.00000000      -1.03718746
2
Properties=species:S:1:pos:R:3:forces:R:3 energy=-3.357699294855523 pbc="F F F"
Rh       0.00000000       0.00000000       0.00000000       0.00000000       0.00000000       0.91047108
Rh       0.00000000       0.00000000       3.88363636       0.00000000       0.00000000      -0.91047108
2
Properties=species:S:1:pos:R:3:forces:R:3 energy=-3.3077854581245654 pbc="F F F"
Rh       0.00000000       0.00000000       0.00000000       0.00000000       0.00000000       0.78880125
Rh       0.00000000       0.00000000       3.94242424       0.00000000       0.00000000      -0.78880125
2
Properties=species:S:1:pos:R:3:forces:R:3 energy=-3.2647868670911393 pbc="F F F"
Rh       0.00000000       0.00000000       0.00000000       0.00000000       0.00000000       0.67576218
Rh       0.00000000       0.00000000       4.00121212       0.00000000       0.00000000      -0.67576218
2
Properties=species:S:1:pos:R:3:forces:R:3 energy=-3.2281114734514094 pbc="F F F"
Rh       0.00000000       0.00000000       0.00000000       0.00000000       0.00000000       0.57399410
Rh       0.00000000       0.00000000       4.06000000       0.00000000       0.00000000      -0.57399410
2
Properties=species:S:1:pos:R:3:forces:R:3 energy=-3.1970453810086594 pbc="F F F"
Rh       0.00000000       0.00000000       0.00000000       0.00000000       0.00000000       0.48512405
Rh       0.00000000       0.00000000       4.11878788       0.00000000       0.00000000      -0.48512405
2
Properties=species:S:1:pos:R:3:forces:R:3 energy=-3.170807291472443 pbc="F F F"
Rh       0.00000000       0.00000000       0.00000000       0.00000000       0.00000000       0.40974730
Rh       0.00000000       0.00000000       4.17757576       0.00000000       0.00000000      -0.40974730
2
Properties=species:S:1:pos:R:3:forces:R:3 energy=-3.148610064801242 pbc="F F F"
Rh       0.00000000       0.00000000       0.00000000       0.00000000       0.00000000       0.34755069
Rh       0.00000000       0.00000000       4.23636364       0.00000000       0.00000000      -0.34755069
2
Properties=species:S:1:pos:R:3:forces:R:3 energy=-3.12970568527925 pbc="F F F"
Rh       0.00000000       0.00000000       0.00000000       0.00000000       0.00000000       0.29748356
Rh       0.00000000       0.00000000       4.29515152       0.00000000       0.00000000      -0.29748356
2
Properties=species:S:1:pos:R:3:forces:R:3 energy=-3.1134256722975833 pbc="F F F"
Rh       0.00000000       0.00000000       0.00000000       0.00000000       0.00000000       0.25800762
Rh       0.00000000       0.00000000       4.35393939       0.00000000       0.00000000      -0.25800762
2
Properties=species:S:1:pos:R:3:forces:R:3 energy=-3.09919835586176 pbc="F F F"
Rh       0.00000000       0.00000000       0.00000000       0.00000000       0.00000000       0.22732183
Rh       0.00000000       0.00000000       4.41272727       0.00000000       0.00000000      -0.22732183
2
Properties=species:S:1:pos:R:3:forces:R:3 energy=-3.0865619135858213 pbc="F F F"
Rh       0.00000000       0.00000000       0.00000000       0.00000000       0.00000000       0.20358159
Rh       0.00000000       0.00000000       4.47151515       0.00000000       0.00000000      -0.20358159
2
Properties=species:S:1:pos:R:3:forces:R:3 energy=-3.0751599207668003 pbc="F F F"
Rh       0.00000000       0.00000000       0.00000000       0.00000000       0.00000000       0.18504517
Rh       0.00000000       0.00000000       4.53030303       0.00000000       0.00000000      -0.18504517
2
Properties=species:S:1:pos:R:3:forces:R:3 energy=-3.064733279830994 pbc="F F F"
Rh       0.00000000       0.00000000       0.00000000       0.00000000       0.00000000       0.17018196
Rh       0.00000000       0.00000000       4.58909091       0.00000000       0.00000000      -0.17018196
2
Properties=species:S:1:pos:R:3:forces:R:3 energy=-3.0551035572079206 pbc="F F F"
Rh       0.00000000       0.00000000       0.00000000       0.00000000       0.00000000       0.15775120
Rh       0.00000000       0.00000000       4.64787879       0.00000000       0.00000000      -0.15775120
2
Properties=species:S:1:pos:R:3:forces:R:3 energy=-3.046155817192626 pbc="F F F"
Rh       0.00000000       0.00000000       0.00000000       0.00000000       0.00000000       0.14684007
Rh       0.00000000       0.00000000       4.70666667       0.00000000       0.00000000      -0.14684007
2
Properties=species:S:1:pos:R:3:forces:R:3 energy=-3.0378200736457623 pbc="F F F"
Rh       0.00000000       0.00000000       0.00000000       0.00000000       0.00000000       0.13688427
Rh       0.00000000       0.00000000       4.76545455       0.00000000       0.00000000      -0.13688427
2
Properties=species:S:1:pos:R:3:forces:R:3 energy=-3.0300476707151467 pbc="F F F"
Rh       0.00000000       0.00000000       0.00000000       0.00000000       0.00000000       0.12763508
Rh       0.00000000       0.00000000       4.82424242       0.00000000       0.00000000      -0.12763508
2
Properties=species:S:1:pos:R:3:forces:R:3 energy=-3.0227998165692096 pbc="F F F"
Rh       0.00000000       0.00000000       0.00000000       0.00000000       0.00000000       0.11909688
Rh       0.00000000       0.00000000       4.88303030       0.00000000       0.00000000      -0.11909688
2
Properties=species:S:1:pos:R:3:forces:R:3 energy=-3.0160281764574233 pbc="F F F"
Rh       0.00000000       0.00000000       0.00000000       0.00000000       0.00000000       0.11142419
Rh       0.00000000       0.00000000       4.94181818       0.00000000       0.00000000      -0.11142419
2
Properties=species:S:1:pos:R:3:forces:R:3 energy=-3.009677577678047 pbc="F F F"
Rh       0.00000000       0.00000000       0.00000000       0.00000000       0.00000000       0.10480277
Rh       0.00000000       0.00000000       5.00060606       0.00000000       0.00000000      -0.10480277
2
Properties=species:S:1:pos:R:3:forces:R:3 energy=-3.0036830020034415 pbc="F F F"
Rh       0.00000000       0.00000000       0.00000000       0.00000000       0.00000000       0.09933240
Rh       0.00000000       0.00000000       5.05939394       0.00000000       0.00000000      -0.09933240
2
Properties=species:S:1:pos:R:3:forces:R:3 energy=-2.9979773584585154 pbc="F F F"
Rh       0.00000000       0.00000000       0.00000000       0.00000000       0.00000000       0.09493341
Rh       0.00000000       0.00000000       5.11818182       0.00000000       0.00000000      -0.09493341
2
Properties=species:S:1:pos:R:3:forces:R:3 energy=-2.9925057210792874 pbc="F F F"
Rh       0.00000000       0.00000000       0.00000000       0.00000000       0.00000000       0.09132385
Rh       0.00000000       0.00000000       5.17696970       0.00000000       0.00000000      -0.09132385
2
Properties=species:S:1:pos:R:3:forces:R:3 energy=-2.9872339531634213 pbc="F F F"
Rh       0.00000000       0.00000000       0.00000000       0.00000000       0.00000000       0.08804691
Rh       0.00000000       0.00000000       5.23575758       0.00000000       0.00000000      -0.08804691
2
Properties=species:S:1:pos:R:3:forces:R:3 energy=-2.9821578368683217 pbc="F F F"
Rh       0.00000000       0.00000000       0.00000000       0.00000000       0.00000000       0.08456816
Rh       0.00000000       0.00000000       5.29454545       0.00000000       0.00000000      -0.08456816
2
Properties=species:S:1:pos:R:3:forces:R:3 energy=-2.977304140927044 pbc="F F F"
Rh       0.00000000       0.00000000       0.00000000       0.00000000       0.00000000       0.08040415
Rh       0.00000000       0.00000000       5.35333333       0.00000000       0.00000000      -0.08040415
2
Properties=species:S:1:pos:R:3:forces:R:3 energy=-2.972723941760261 pbc="F F F"
Rh       0.00000000       0.00000000       0.00000000       0.00000000       0.00000000       0.07522626
Rh       0.00000000       0.00000000       5.41212121       0.00000000       0.00000000      -0.07522626
2
Properties=species:S:1:pos:R:3:forces:R:3 energy=-2.9684813314399263 pbc="F F F"
Rh       0.00000000       0.00000000       0.00000000       0.00000000       0.00000000       0.06892858
Rh       0.00000000       0.00000000       5.47090909       0.00000000       0.00000000      -0.06892858
2
Properties=species:S:1:pos:R:3:forces:R:3 energy=-2.964639376335687 pbc="F F F"
Rh       0.00000000       0.00000000       0.00000000       0.00000000       0.00000000       0.06162630
Rh       0.00000000       0.00000000       5.52969697       0.00000000       0.00000000      -0.06162630
2
Properties=species:S:1:pos:R:3:forces:R:3 energy=-2.9612496868860214 pbc="F F F"
Rh       0.00000000       0.00000000       0.00000000       0.00000000       0.00000000       0.05360806
Rh       0.00000000       0.00000000       5.58848485       0.00000000       0.00000000      -0.05360806
2
Properties=species:S:1:pos:R:3:forces:R:3 energy=-2.9583425148916938 pbc="F F F"
Rh       0.00000000       0.00000000       0.00000000       0.00000000       0.00000000       0.04528090
Rh       0.00000000       0.00000000       5.64727273       0.00000000       0.00000000      -0.04528090
2
Properties=species:S:1:pos:R:3:forces:R:3 energy=-2.955923619228182 pbc="F F F"
Rh       0.00000000       0.00000000       0.00000000       0.00000000       0.00000000       0.03709199
Rh       0.00000000       0.00000000       5.70606061       0.00000000       0.00000000      -0.03709199
2
Properties=species:S:1:pos:R:3:forces:R:3 energy=-2.95396839408022 pbc="F F F"
Rh       0.00000000       0.00000000       0.00000000       0.00000000       0.00000000       0.02948637
Rh       0.00000000       0.00000000       5.76484848       0.00000000       0.00000000      -0.02948637
2
Properties=species:S:1:pos:R:3:forces:R:3 energy=-2.9524362580038312 pbc="F F F"
Rh       0.00000000       0.00000000       0.00000000       0.00000000       0.00000000       0.02286422
Rh       0.00000000       0.00000000       5.82363636       0.00000000       0.00000000      -0.02286422
2
Properties=species:S:1:pos:R:3:forces:R:3 energy=-2.951255810201891 pbc="F F F"
Rh       0.00000000       0.00000000       0.00000000       0.00000000       0.00000000       0.01757650
Rh       0.00000000       0.00000000       5.88242424       0.00000000       0.00000000      -0.01757650
2
Properties=species:S:1:pos:R:3:forces:R:3 energy=-2.9503375538239305 pbc="F F F"
Rh       0.00000000       0.00000000       0.00000000       0.00000000       0.00000000       0.01392423
Rh       0.00000000       0.00000000       5.94121212       0.00000000       0.00000000      -0.01392423
2
Properties=species:S:1:pos:R:3:forces:R:3 energy=-2.949580825944038 pbc="F F F"
Rh       0.00000000       0.00000000       0.00000000       0.00000000       0.00000000       0.01216704
Rh       0.00000000       0.00000000       6.00000000       0.00000000       0.00000000      -0.01216704
