2
Properties=species:S:1:pos:R:3:forces:R:3 energy=7607.132970749391 pbc="F F F"
Ru       0.00000000       0.00000000       0.00000000       0.00000000       0.00000000 -125154.92968750
Ru       0.00000000       0.00000000       0.18000000       0.00000000       0.00000000  125154.92968750
2
Properties=species:S:1:pos:R:3:forces:R:3 energy=3139.49771684314 pbc="F F F"
Ru       0.00000000       0.00000000       0.00000000       0.00000000       0.00000000  -43568.40625000
Ru       0.00000000       0.00000000       0.23878788       0.00000000       0.00000000   43568.40625000
2
Properties=species:S:1:pos:R:3:forces:R:3 energy=1461.795812549433 pbc="F F F"
Ru       0.00000000       0.00000000       0.00000000       0.00000000       0.00000000  -17872.56445312
Ru       0.00000000       0.00000000       0.29757576       0.00000000       0.00000000   17872.56445312
2
Properties=species:S:1:pos:R:3:forces:R:3 energy=740.093481009632 pbc="F F F"
Ru       0.00000000       0.00000000       0.00000000       0.00000000       0.00000000   -8116.07226562
Ru       0.00000000       0.00000000       0.35636364       0.00000000       0.00000000    8116.07226562
2
Properties=species:S:1:pos:R:3:forces:R:3 energy=401.8242854624949 pbc="F F F"
Ru       0.00000000       0.00000000       0.00000000       0.00000000       0.00000000   -3943.18994141
Ru       0.00000000       0.00000000       0.41515152       0.00000000       0.00000000    3943.18994141
2
Properties=species:S:1:pos:R:3:forces:R:3 energy=233.7935695359512 pbc="F F F"
Ru       0.00000000       0.00000000       0.00000000       0.00000000       0.00000000   -2007.58642578
Ru       0.00000000       0.00000000       0.47393939       0.00000000       0.00000000    2007.58642578
2
Properties=species:S:1:pos:R:3:forces:R:3 energy=146.99985313379753 pbc="F F F"
Ru       0.00000000       0.00000000       0.00000000       0.00000000       0.00000000   -1052.18920898
Ru       0.00000000       0.00000000       0.53272727       0.00000000       0.00000000    1052.18920898
2
Properties=species:S:1:pos:R:3:forces:R:3 energy=101.13445859853317 pbc="F F F"
Ru       0.00000000       0.00000000       0.00000000       0.00000000       0.00000000    -563.27441406
Ru       0.00000000       0.00000000       0.59151515       0.00000000       0.00000000     563.27441406
2
Properties=species:S:1:pos:R:3:forces:R:3 energy=76.30615057542781 pbc="F F F"
Ru       0.00000000       0.00000000       0.00000000       0.00000000       0.00000000    -305.13342285
Ru       0.00000000       0.00000000       0.65030303       0.00000000       0.00000000     305.13342285
2
Properties=species:S:1:pos:R:3:forces:R:3 energy=63.00950841134518 pbc="F F F"
Ru       0.00000000       0.00000000       0.00000000       0.00000000       0.00000000    -161.68756104
Ru       0.00000000       0.00000000       0.70909091       0.00000000       0.00000000     161.68756104
2
Properties=species:S:1:pos:R:3:forces:R:3 energy=56.13435221783355 pbc="F F F"
Ru       0.00000000       0.00000000       0.00000000       0.00000000       0.00000000     -79.44900513
Ru       0.00000000       0.00000000       0.76787879       0.00000000       0.00000000      79.44900513
2
Properties=species:S:1:pos:R:3:forces:R:3 energy=52.63685114865346 pbc="F F F"
Ru       0.00000000       0.00000000       0.00000000       0.00000000       0.00000000     -49.52246094
Ru       0.00000000       0.00000000       0.82666667       0.00000000       0.00000000      49.52246094
2
Properties=species:S:1:pos:R:3:forces:R:3 energy=49.476271910752075 pbc="F F F"
Ru       0.00000000       0.00000000       0.00000000       0.00000000       0.00000000     -62.78243256
Ru       0.00000000       0.00000000       0.88545455       0.00000000       0.00000000      62.78243256
2
Properties=species:S:1:pos:R:3:forces:R:3 energy=44.97867197622529 pbc="F F F"
Ru       0.00000000       0.00000000       0.00000000       0.00000000       0.00000000     -76.67543030
Ru       0.00000000       0.00000000       0.94424242       0.00000000       0.00000000      76.67543030
2
Properties=species:S:1:pos:R:3:forces:R:3 energy=42.62031254100993 pbc="F F F"
Ru       0.00000000       0.00000000       0.00000000       0.00000000       0.00000000     -30.55095291
Ru       0.00000000       0.00000000       1.00303030       0.00000000       0.00000000      30.55095291
2
Properties=species:S:1:pos:R:3:forces:R:3 energy=39.41861156984163 pbc="F F F"
Ru       0.00000000       0.00000000       0.00000000       0.00000000       0.00000000     -78.16196442
Ru       0.00000000       0.00000000       1.06181818       0.00000000       0.00000000      78.16196442
2
Properties=species:S:1:pos:R:3:forces:R:3 energy=33.36337628032565 pbc="F F F"
Ru       0.00000000       0.00000000       0.00000000       0.00000000       0.00000000    -122.92765808
Ru       0.00000000       0.00000000       1.12060606       0.00000000       0.00000000     122.92765808
2
Properties=species:S:1:pos:R:3:forces:R:3 energy=25.81593870719394 pbc="F F F"
Ru       0.00000000       0.00000000       0.00000000       0.00000000       0.00000000    -130.17073059
Ru       0.00000000       0.00000000       1.17939394       0.00000000       0.00000000     130.17073059
2
Properties=species:S:1:pos:R:3:forces:R:3 energy=18.3293728443769 pbc="F F F"
Ru       0.00000000       0.00000000       0.00000000       0.00000000       0.00000000    -122.34739685
Ru       0.00000000       0.00000000       1.23818182       0.00000000       0.00000000     122.34739685
2
Properties=species:S:1:pos:R:3:forces:R:3 energy=11.721065455288153 pbc="F F F"
Ru       0.00000000       0.00000000       0.00000000       0.00000000       0.00000000    -100.24686432
Ru       0.00000000       0.00000000       1.29696970       0.00000000       0.00000000     100.24686432
2
Properties=species:S:1:pos:R:3:forces:R:3 energy=6.628672423831211 pbc="F F F"
Ru       0.00000000       0.00000000       0.00000000       0.00000000       0.00000000     -74.06949615
Ru       0.00000000       0.00000000       1.35575758       0.00000000       0.00000000      74.06949615
2
Properties=species:S:1:pos:R:3:forces:R:3 energy=2.7733596002866796 pbc="F F F"
Ru       0.00000000       0.00000000       0.00000000       0.00000000       0.00000000     -59.06253052
Ru       0.00000000       0.00000000       1.41454545       0.00000000       0.00000000      59.06253052
2
Properties=species:S:1:pos:R:3:forces:R:3 energy=-0.41458020625106223 pbc="F F F"
Ru       0.00000000       0.00000000       0.00000000       0.00000000       0.00000000     -49.17329407
Ru       0.00000000       0.00000000       1.47333333       0.00000000       0.00000000      49.17329407
2
Properties=species:S:1:pos:R:3:forces:R:3 energy=-2.9686877318254075 pbc="F F F"
Ru       0.00000000       0.00000000       0.00000000       0.00000000       0.00000000     -37.74605179
Ru       0.00000000       0.00000000       1.53212121       0.00000000       0.00000000      37.74605179
2
Properties=species:S:1:pos:R:3:forces:R:3 energy=-4.884119697902895 pbc="F F F"
Ru       0.00000000       0.00000000       0.00000000       0.00000000       0.00000000     -27.62171364
Ru       0.00000000       0.00000000       1.59090909       0.00000000       0.00000000      27.62171364
2
Properties=species:S:1:pos:R:3:forces:R:3 energy=-6.22130848871232 pbc="F F F"
Ru       0.00000000       0.00000000       0.00000000       0.00000000       0.00000000     -17.92080879
Ru       0.00000000       0.00000000       1.64969697       0.00000000       0.00000000      17.92080879
2
Properties=species:S:1:pos:R:3:forces:R:3 energy=-7.022652055664653 pbc="F F F"
Ru       0.00000000       0.00000000       0.00000000       0.00000000       0.00000000      -9.82378674
Ru       0.00000000       0.00000000       1.70848485       0.00000000       0.00000000       9.82378674
2
Properties=species:S:1:pos:R:3:forces:R:3 energy=-7.4422529856246005 pbc="F F F"
Ru       0.00000000       0.00000000       0.00000000       0.00000000       0.00000000      -4.99162865
Ru       0.00000000       0.00000000       1.76727273       0.00000000       0.00000000       4.99162865
2
Properties=species:S:1:pos:R:3:forces:R:3 energy=-7.660749976855935 pbc="F F F"
Ru       0.00000000       0.00000000       0.00000000       0.00000000       0.00000000      -2.75650239
Ru       0.00000000       0.00000000       1.82606061       0.00000000       0.00000000       2.75650239
2
Properties=species:S:1:pos:R:3:forces:R:3 energy=-7.790440337722075 pbc="F F F"
Ru       0.00000000       0.00000000       0.00000000       0.00000000       0.00000000      -1.76925385
Ru       0.00000000       0.00000000       1.88484848       0.00000000       0.00000000       1.76925385
2
Properties=species:S:1:pos:R:3:forces:R:3 energy=-7.874930769160047 pbc="F F F"
Ru       0.00000000       0.00000000       0.00000000       0.00000000       0.00000000      -1.11458206
Ru       0.00000000       0.00000000       1.94363636       0.00000000       0.00000000       1.11458206
2
Properties=species:S:1:pos:R:3:forces:R:3 energy=-7.920112183626859 pbc="F F F"
Ru       0.00000000       0.00000000       0.00000000       0.00000000       0.00000000      -0.40032864
Ru       0.00000000       0.00000000       2.00242424       0.00000000       0.00000000       0.40032864
2
Properties=species:S:1:pos:R:3:forces:R:3 energy=-7.919463482220411 pbc="F F F"
Ru       0.00000000       0.00000000       0.00000000       0.00000000       0.00000000       0.43885347
Ru       0.00000000       0.00000000       2.06121212       0.00000000       0.00000000      -0.43885347
2
Properties=species:S:1:pos:R:3:forces:R:3 energy=-7.867583343933266 pbc="F F F"
Ru       0.00000000       0.00000000       0.00000000       0.00000000       0.00000000       1.32482266
Ru       0.00000000       0.00000000       2.12000000       0.00000000       0.00000000      -1.32482266
2
Properties=species:S:1:pos:R:3:forces:R:3 energy=-7.764880881961662 pbc="F F F"
Ru       0.00000000       0.00000000       0.00000000       0.00000000       0.00000000       2.15141082
Ru       0.00000000       0.00000000       2.17878788       0.00000000       0.00000000      -2.15141082
2
Properties=species:S:1:pos:R:3:forces:R:3 energy=-7.6174138148634665 pbc="F F F"
Ru       0.00000000       0.00000000       0.00000000       0.00000000       0.00000000       2.83722591
Ru       0.00000000       0.00000000       2.23757576       0.00000000       0.00000000      -2.83722591
2
Properties=species:S:1:pos:R:3:forces:R:3 energy=-7.4349519303529945 pbc="F F F"
Ru       0.00000000       0.00000000       0.00000000       0.00000000       0.00000000       3.33746123
Ru       0.00000000       0.00000000       2.29636364       0.00000000       0.00000000      -3.33746123
2
Properties=species:S:1:pos:R:3:forces:R:3 energy=-7.228837916662626 pbc="F F F"
Ru       0.00000000       0.00000000       0.00000000       0.00000000       0.00000000       3.64345932
Ru       0.00000000       0.00000000       2.35515152       0.00000000       0.00000000      -3.64345932
2
Properties=species:S:1:pos:R:3:forces:R:3 energy=-7.009951499033786 pbc="F F F"
Ru       0.00000000       0.00000000       0.00000000       0.00000000       0.00000000       3.77707911
Ru       0.00000000       0.00000000       2.41393939       0.00000000       0.00000000      -3.77707911
2
Properties=species:S:1:pos:R:3:forces:R:3 energy=-6.787587252424581 pbc="F F F"
Ru       0.00000000       0.00000000       0.00000000       0.00000000       0.00000000       3.76428032
Ru       0.00000000       0.00000000       2.47272727       0.00000000       0.00000000      -3.76428032
2
Properties=species:S:1:pos:R:3:forces:R:3 energy=-6.570379849940632 pbc="F F F"
Ru       0.00000000       0.00000000       0.00000000       0.00000000       0.00000000       3.59595323
Ru       0.00000000       0.00000000       2.53151515       0.00000000       0.00000000      -3.59595323
2
Properties=species:S:1:pos:R:3:forces:R:3 energy=-6.368774396510985 pbc="F F F"
Ru       0.00000000       0.00000000       0.00000000       0.00000000       0.00000000       3.22494721
Ru       0.00000000       0.00000000       2.59030303       0.00000000       0.00000000      -3.22494721
2
Properties=species:S:1:pos:R:3:forces:R:3 energy=-6.195758399538101 pbc="F F F"
Ru       0.00000000       0.00000000       0.00000000       0.00000000       0.00000000       2.62477660
Ru       0.00000000       0.00000000       2.64909091       0.00000000       0.00000000      -2.62477660
2
Properties=species:S:1:pos:R:3:forces:R:3 energy=-6.063530317340238 pbc="F F F"
Ru       0.00000000       0.00000000       0.00000000       0.00000000       0.00000000       1.85575211
Ru       0.00000000       0.00000000       2.70787879       0.00000000       0.00000000      -1.85575211
2
Properties=species:S:1:pos:R:3:forces:R:3 energy=-5.978171666839192 pbc="F F F"
Ru       0.00000000       0.00000000       0.00000000       0.00000000       0.00000000       1.05561817
Ru       0.00000000       0.00000000       2.76666667       0.00000000       0.00000000      -1.05561817
2
Properties=species:S:1:pos:R:3:forces:R:3 energy=-5.937338019870672 pbc="F F F"
Ru       0.00000000       0.00000000       0.00000000       0.00000000       0.00000000       0.35946432
Ru       0.00000000       0.00000000       2.82545455       0.00000000       0.00000000      -0.35946432
2
Properties=species:S:1:pos:R:3:forces:R:3 energy=-5.932229680987387 pbc="F F F"
Ru       0.00000000       0.00000000       0.00000000       0.00000000       0.00000000      -0.15067419
Ru       0.00000000       0.00000000       2.88424242       0.00000000       0.00000000       0.15067419
2
Properties=species:S:1:pos:R:3:forces:R:3 energy=-5.95075240818386 pbc="F F F"
Ru       0.00000000       0.00000000       0.00000000       0.00000000       0.00000000      -0.44257855
Ru       0.00000000       0.00000000       2.94303030       0.00000000       0.00000000       0.44257855
2
Properties=species:S:1:pos:R:3:forces:R:3 energy=-5.980071495140766 pbc="F F F"
Ru       0.00000000       0.00000000       0.00000000       0.00000000       0.00000000      -0.52127004
Ru       0.00000000       0.00000000       3.00181818       0.00000000       0.00000000       0.52127004
2
Properties=species:S:1:pos:R:3:forces:R:3 energy=-6.0084769450582 pbc="F F F"
Ru       0.00000000       0.00000000       0.00000000       0.00000000       0.00000000      -0.41872433
Ru       0.00000000       0.00000000       3.06060606       0.00000000       0.00000000       0.41872433
2
Properties=species:S:1:pos:R:3:forces:R:3 energy=-6.0267437537137605 pbc="F F F"
Ru       0.00000000       0.00000000       0.00000000       0.00000000       0.00000000      -0.18590970
Ru       0.00000000       0.00000000       3.11939394       0.00000000       0.00000000       0.18590970
2
Properties=species:S:1:pos:R:3:forces:R:3 energy=-6.028969947676101 pbc="F F F"
Ru       0.00000000       0.00000000       0.00000000       0.00000000       0.00000000       0.11673471
Ru       0.00000000       0.00000000       3.17818182       0.00000000       0.00000000      -0.11673471
2
Properties=species:S:1:pos:R:3:forces:R:3 energy=-6.0127918525120885 pbc="F F F"
Ru       0.00000000       0.00000000       0.00000000       0.00000000       0.00000000       0.43139166
Ru       0.00000000       0.00000000       3.23696970       0.00000000       0.00000000      -0.43139166
2
Properties=species:S:1:pos:R:3:forces:R:3 energy=-5.978911897032939 pbc="F F F"
Ru       0.00000000       0.00000000       0.00000000       0.00000000       0.00000000       0.71275771
Ru       0.00000000       0.00000000       3.29575758       0.00000000       0.00000000      -0.71275771
2
Properties=species:S:1:pos:R:3:forces:R:3 energy=-5.93020956810821 pbc="F F F"
Ru       0.00000000       0.00000000       0.00000000       0.00000000       0.00000000       0.93239802
Ru       0.00000000       0.00000000       3.35454545       0.00000000       0.00000000      -0.93239802
2
Properties=species:S:1:pos:R:3:forces:R:3 energy=-5.870732451589594 pbc="F F F"
Ru       0.00000000       0.00000000       0.00000000       0.00000000       0.00000000       1.07863939
Ru       0.00000000       0.00000000       3.41333333       0.00000000       0.00000000      -1.07863939
2
Properties=species:S:1:pos:R:3:forces:R:3 energy=-5.804781561942985 pbc="F F F"
Ru       0.00000000       0.00000000       0.00000000       0.00000000       0.00000000       1.15409327
Ru       0.00000000       0.00000000       3.47212121       0.00000000       0.00000000      -1.15409327
2
Properties=species:S:1:pos:R:3:forces:R:3 energy=-5.73617372584989 pbc="F F F"
Ru       0.00000000       0.00000000       0.00000000       0.00000000       0.00000000       1.17182505
Ru       0.00000000       0.00000000       3.53090909       0.00000000       0.00000000      -1.17182505
2
Properties=species:S:1:pos:R:3:forces:R:3 energy=-5.667771127665971 pbc="F F F"
Ru       0.00000000       0.00000000       0.00000000       0.00000000       0.00000000       1.15038586
Ru       0.00000000       0.00000000       3.58969697       0.00000000       0.00000000      -1.15038586
2
Properties=species:S:1:pos:R:3:forces:R:3 energy=-5.601314931266693 pbc="F F F"
Ru       0.00000000       0.00000000       0.00000000       0.00000000       0.00000000       1.10843551
Ru       0.00000000       0.00000000       3.64848485       0.00000000       0.00000000      -1.10843551
2
Properties=species:S:1:pos:R:3:forces:R:3 energy=-5.537563206363291 pbc="F F F"
Ru       0.00000000       0.00000000       0.00000000       0.00000000       0.00000000       1.06026363
Ru       0.00000000       0.00000000       3.70727273       0.00000000       0.00000000      -1.06026363
2
Properties=species:S:1:pos:R:3:forces:R:3 energy=-5.476620416643442 pbc="F F F"
Ru       0.00000000       0.00000000       0.00000000       0.00000000       0.00000000       1.01355970
Ru       0.00000000       0.00000000       3.76606061       0.00000000       0.00000000      -1.01355970
2
Properties=species:S:1:pos:R:3:forces:R:3 energy=-5.41833476450822 pbc="F F F"
Ru       0.00000000       0.00000000       0.00000000       0.00000000       0.00000000       0.96970922
Ru       0.00000000       0.00000000       3.82484848       0.00000000       0.00000000      -0.96970922
2
Properties=species:S:1:pos:R:3:forces:R:3 energy=-5.362602845666684 pbc="F F F"
Ru       0.00000000       0.00000000       0.00000000       0.00000000       0.00000000       0.92597586
Ru       0.00000000       0.00000000       3.88363636       0.00000000       0.00000000      -0.92597586
2
Properties=species:S:1:pos:R:3:forces:R:3 energy=-5.3095400003785915 pbc="F F F"
Ru       0.00000000       0.00000000       0.00000000       0.00000000       0.00000000       0.87830186
Ru       0.00000000       0.00000000       3.94242424       0.00000000       0.00000000      -0.87830186
2
Properties=species:S:1:pos:R:3:forces:R:3 energy=-5.259476867888345 pbc="F F F"
Ru       0.00000000       0.00000000       0.00000000       0.00000000       0.00000000       0.82354683
Ru       0.00000000       0.00000000       4.00121212       0.00000000       0.00000000      -0.82354683
2
Properties=species:S:1:pos:R:3:forces:R:3 energy=-5.212872232930986 pbc="F F F"
Ru       0.00000000       0.00000000       0.00000000       0.00000000       0.00000000       0.76063508
Ru       0.00000000       0.00000000       4.06000000       0.00000000       0.00000000      -0.76063508
2
Properties=species:S:1:pos:R:3:forces:R:3 energy=-5.170185071814872 pbc="F F F"
Ru       0.00000000       0.00000000       0.00000000       0.00000000       0.00000000       0.69060612
Ru       0.00000000       0.00000000       4.11878788       0.00000000       0.00000000      -0.69060612
2
Properties=species:S:1:pos:R:3:forces:R:3 energy=-5.131764488569331 pbc="F F F"
Ru       0.00000000       0.00000000       0.00000000       0.00000000       0.00000000       0.61595976
Ru       0.00000000       0.00000000       4.17757576       0.00000000       0.00000000      -0.61595976
2
Properties=species:S:1:pos:R:3:forces:R:3 energy=-5.097791764222742 pbc="F F F"
Ru       0.00000000       0.00000000       0.00000000       0.00000000       0.00000000       0.53981876
Ru       0.00000000       0.00000000       4.23636364       0.00000000       0.00000000      -0.53981876
2
Properties=species:S:1:pos:R:3:forces:R:3 energy=-5.06826317165791 pbc="F F F"
Ru       0.00000000       0.00000000       0.00000000       0.00000000       0.00000000       0.46523723
Ru       0.00000000       0.00000000       4.29515152       0.00000000       0.00000000      -0.46523723
2
Properties=species:S:1:pos:R:3:forces:R:3 energy=-5.043009497425155 pbc="F F F"
Ru       0.00000000       0.00000000       0.00000000       0.00000000       0.00000000       0.39481708
Ru       0.00000000       0.00000000       4.35393939       0.00000000       0.00000000      -0.39481708
2
Properties=species:S:1:pos:R:3:forces:R:3 energy=-5.021720037319514 pbc="F F F"
Ru       0.00000000       0.00000000       0.00000000       0.00000000       0.00000000       0.33064920
Ru       0.00000000       0.00000000       4.41272727       0.00000000       0.00000000      -0.33064920
2
Properties=species:S:1:pos:R:3:forces:R:3 energy=-5.003976423308583 pbc="F F F"
Ru       0.00000000       0.00000000       0.00000000       0.00000000       0.00000000       0.27446854
Ru       0.00000000       0.00000000       4.47151515       0.00000000       0.00000000      -0.27446854
2
Properties=species:S:1:pos:R:3:forces:R:3 energy=-4.989262058905365 pbc="F F F"
Ru       0.00000000       0.00000000       0.00000000       0.00000000       0.00000000       0.22781999
Ru       0.00000000       0.00000000       4.53030303       0.00000000       0.00000000      -0.22781999
2
Properties=species:S:1:pos:R:3:forces:R:3 energy=-4.976975694020093 pbc="F F F"
Ru       0.00000000       0.00000000       0.00000000       0.00000000       0.00000000       0.19210611
Ru       0.00000000       0.00000000       4.58909091       0.00000000       0.00000000      -0.19210611
2
Properties=species:S:1:pos:R:3:forces:R:3 energy=-4.966439486842402 pbc="F F F"
Ru       0.00000000       0.00000000       0.00000000       0.00000000       0.00000000       0.16843028
Ru       0.00000000       0.00000000       4.64787879       0.00000000       0.00000000      -0.16843028
2
Properties=species:S:1:pos:R:3:forces:R:3 energy=-4.956927042199004 pbc="F F F"
Ru       0.00000000       0.00000000       0.00000000       0.00000000       0.00000000       0.15723032
Ru       0.00000000       0.00000000       4.70666667       0.00000000       0.00000000      -0.15723032
2
Properties=species:S:1:pos:R:3:forces:R:3 energy=-4.947719984113116 pbc="F F F"
Ru       0.00000000       0.00000000       0.00000000       0.00000000       0.00000000       0.15786488
Ru       0.00000000       0.00000000       4.76545455       0.00000000       0.00000000      -0.15786488
2
Properties=species:S:1:pos:R:3:forces:R:3 energy=-4.938171877326236 pbc="F F F"
Ru       0.00000000       0.00000000       0.00000000       0.00000000       0.00000000       0.16835961
Ru       0.00000000       0.00000000       4.82424242       0.00000000       0.00000000      -0.16835961
2
Properties=species:S:1:pos:R:3:forces:R:3 energy=-4.927794888115874 pbc="F F F"
Ru       0.00000000       0.00000000       0.00000000       0.00000000       0.00000000       0.18549624
Ru       0.00000000       0.00000000       4.88303030       0.00000000       0.00000000      -0.18549624
2
Properties=species:S:1:pos:R:3:forces:R:3 energy=-4.916309849029339 pbc="F F F"
Ru       0.00000000       0.00000000       0.00000000       0.00000000       0.00000000       0.20530179
Ru       0.00000000       0.00000000       4.94181818       0.00000000       0.00000000      -0.20530179
2
Properties=species:S:1:pos:R:3:forces:R:3 energy=-4.903682946834524 pbc="F F F"
Ru       0.00000000       0.00000000       0.00000000       0.00000000       0.00000000       0.22371671
Ru       0.00000000       0.00000000       5.00060606       0.00000000       0.00000000      -0.22371671
2
Properties=species:S:1:pos:R:3:forces:R:3 energy=-4.890101012518874 pbc="F F F"
Ru       0.00000000       0.00000000       0.00000000       0.00000000       0.00000000       0.23730937
Ru       0.00000000       0.00000000       5.05939394       0.00000000       0.00000000      -0.23730937
2
Properties=species:S:1:pos:R:3:forces:R:3 energy=-4.875921844693739 pbc="F F F"
Ru       0.00000000       0.00000000       0.00000000       0.00000000       0.00000000       0.24375440
Ru       0.00000000       0.00000000       5.11818182       0.00000000       0.00000000      -0.24375440
2
Properties=species:S:1:pos:R:3:forces:R:3 energy=-4.861603260644194 pbc="F F F"
Ru       0.00000000       0.00000000       0.00000000       0.00000000       0.00000000       0.24202368
Ru       0.00000000       0.00000000       5.17696970       0.00000000       0.00000000      -0.24202368
2
Properties=species:S:1:pos:R:3:forces:R:3 energy=-4.847623977790737 pbc="F F F"
Ru       0.00000000       0.00000000       0.00000000       0.00000000       0.00000000       0.23231371
Ru       0.00000000       0.00000000       5.23575758       0.00000000       0.00000000      -0.23231371
2
Properties=species:S:1:pos:R:3:forces:R:3 energy=-4.834423582892509 pbc="F F F"
Ru       0.00000000       0.00000000       0.00000000       0.00000000       0.00000000       0.21579239
Ru       0.00000000       0.00000000       5.29454545       0.00000000       0.00000000      -0.21579239
2
Properties=species:S:1:pos:R:3:forces:R:3 energy=-4.8223506217373995 pbc="F F F"
Ru       0.00000000       0.00000000       0.00000000       0.00000000       0.00000000       0.19422169
Ru       0.00000000       0.00000000       5.35333333       0.00000000       0.00000000      -0.19422169
2
Properties=species:S:1:pos:R:3:forces:R:3 energy=-4.811645922512804 pbc="F F F"
Ru       0.00000000       0.00000000       0.00000000       0.00000000       0.00000000       0.16960871
Ru       0.00000000       0.00000000       5.41212121       0.00000000       0.00000000      -0.16960871
2
Properties=species:S:1:pos:R:3:forces:R:3 energy=-4.802430316832839 pbc="F F F"
Ru       0.00000000       0.00000000       0.00000000       0.00000000       0.00000000       0.14387952
Ru       0.00000000       0.00000000       5.47090909       0.00000000       0.00000000      -0.14387952
2
Properties=species:S:1:pos:R:3:forces:R:3 energy=-4.794719424858066 pbc="F F F"
Ru       0.00000000       0.00000000       0.00000000       0.00000000       0.00000000       0.11863688
Ru       0.00000000       0.00000000       5.52969697       0.00000000       0.00000000      -0.11863688
2
Properties=species:S:1:pos:R:3:forces:R:3 energy=-4.788448522103718 pbc="F F F"
Ru       0.00000000       0.00000000       0.00000000       0.00000000       0.00000000       0.09506312
Ru       0.00000000       0.00000000       5.58848485       0.00000000       0.00000000      -0.09506312
2
Properties=species:S:1:pos:R:3:forces:R:3 energy=-4.7834945483928 pbc="F F F"
Ru       0.00000000       0.00000000       0.00000000       0.00000000       0.00000000       0.07390784
Ru       0.00000000       0.00000000       5.64727273       0.00000000       0.00000000      -0.07390784
2
Properties=species:S:1:pos:R:3:forces:R:3 energy=-4.7797042222414845 pbc="F F F"
Ru       0.00000000       0.00000000       0.00000000       0.00000000       0.00000000       0.05556605
Ru       0.00000000       0.00000000       5.70606061       0.00000000       0.00000000      -0.05556605
2
Properties=species:S:1:pos:R:3:forces:R:3 energy=-4.7769012718200905 pbc="F F F"
Ru       0.00000000       0.00000000       0.00000000       0.00000000       0.00000000       0.04017663
Ru       0.00000000       0.00000000       5.76484848       0.00000000       0.00000000      -0.04017663
2
Properties=species:S:1:pos:R:3:forces:R:3 energy=-4.774918447191073 pbc="F F F"
Ru       0.00000000       0.00000000       0.00000000       0.00000000       0.00000000       0.02784549
Ru       0.00000000       0.00000000       5.82363636       0.00000000       0.00000000      -0.02784549
2
Properties=species:S:1:pos:R:3:forces:R:3 energy=-4.773570293073679 pbc="F F F"
Ru       0.00000000       0.00000000       0.00000000       0.00000000       0.00000000       0.01861700
Ru       0.00000000       0.00000000       5.88242424       0.00000000       0.00000000      -0.01861700
2
Properties=species:S:1:pos:R:3:forces:R:3 energy=-4.7726661034347275 pbc="F F F"
Ru       0.00000000       0.00000000       0.00000000       0.00000000       0.00000000       0.01265917
Ru       0.00000000       0.00000000       5.94121212       0.00000000       0.00000000      -0.01265917
2
Properties=species:S:1:pos:R:3:forces:R:3 energy=-4.772012320721552 pbc="F F F"
Ru       0.00000000       0.00000000       0.00000000       0.00000000       0.00000000       0.01020642
Ru       0.00000000       0.00000000       6.00000000       0.00000000       0.00000000      -0.01020642
