2
Properties=species:S:1:pos:R:3:forces:R:3 energy=7607.133947311891 pbc="F F F"
Ru       0.00000000       0.00000000       0.00000000       0.00000000       0.00000000 -125154.92187500
Ru       0.00000000       0.00000000       0.18000000       0.00000000       0.00000000  125154.92187500
2
Properties=species:S:1:pos:R:3:forces:R:3 energy=3139.497472702515 pbc="F F F"
Ru       0.00000000       0.00000000       0.00000000       0.00000000       0.00000000  -43568.40625000
Ru       0.00000000       0.00000000       0.23878788       0.00000000       0.00000000   43568.40625000
2
Properties=species:S:1:pos:R:3:forces:R:3 energy=1461.795812549433 pbc="F F F"
Ru       0.00000000       0.00000000       0.00000000       0.00000000       0.00000000  -17872.56250000
Ru       0.00000000       0.00000000       0.29757576       0.00000000       0.00000000   17872.56250000
2
Properties=species:S:1:pos:R:3:forces:R:3 energy=740.0935420447883 pbc="F F F"
Ru       0.00000000       0.00000000       0.00000000       0.00000000       0.00000000   -8116.07177734
Ru       0.00000000       0.00000000       0.35636364       0.00000000       0.00000000    8116.07177734
2
Properties=species:S:1:pos:R:3:forces:R:3 energy=401.82434649765116 pbc="F F F"
Ru       0.00000000       0.00000000       0.00000000       0.00000000       0.00000000   -3943.18994141
Ru       0.00000000       0.00000000       0.41515152       0.00000000       0.00000000    3943.18994141
2
Properties=species:S:1:pos:R:3:forces:R:3 energy=233.79358479474027 pbc="F F F"
Ru       0.00000000       0.00000000       0.00000000       0.00000000       0.00000000   -2007.58642578
Ru       0.00000000       0.00000000       0.47393939       0.00000000       0.00000000    2007.58642578
2
Properties=species:S:1:pos:R:3:forces:R:3 energy=146.99979209864128 pbc="F F F"
Ru       0.00000000       0.00000000       0.00000000       0.00000000       0.00000000   -1052.18933105
Ru       0.00000000       0.00000000       0.53272727       0.00000000       0.00000000    1052.18933105
2
Properties=species:S:1:pos:R:3:forces:R:3 energy=101.13449674550583 pbc="F F F"
Ru       0.00000000       0.00000000       0.00000000       0.00000000       0.00000000    -563.27410889
Ru       0.00000000       0.00000000       0.59151515       0.00000000       0.00000000     563.27410889
2
Properties=species:S:1:pos:R:3:forces:R:3 energy=76.30610479906062 pbc="F F F"
Ru       0.00000000       0.00000000       0.00000000       0.00000000       0.00000000    -305.13336182
Ru       0.00000000       0.00000000       0.65030303       0.00000000       0.00000000     305.13336182
2
Properties=species:S:1:pos:R:3:forces:R:3 energy=63.009470264372524 pbc="F F F"
Ru       0.00000000       0.00000000       0.00000000       0.00000000       0.00000000    -161.68748474
Ru       0.00000000       0.00000000       0.70909091       0.00000000       0.00000000     161.68748474
2
Properties=species:S:1:pos:R:3:forces:R:3 energy=56.13433695904449 pbc="F F F"
Ru       0.00000000       0.00000000       0.00000000       0.00000000       0.00000000     -79.44938660
Ru       0.00000000       0.00000000       0.76787879       0.00000000       0.00000000      79.44938660
2
Properties=species:S:1:pos:R:3:forces:R:3 energy=52.6369694042687 pbc="F F F"
Ru       0.00000000       0.00000000       0.00000000       0.00000000       0.00000000     -49.52267456
Ru       0.00000000       0.00000000       0.82666667       0.00000000       0.00000000      49.52267456
2
Properties=species:S:1:pos:R:3:forces:R:3 energy=49.47627954014661 pbc="F F F"
Ru       0.00000000       0.00000000       0.00000000       0.00000000       0.00000000     -62.78242493
Ru       0.00000000       0.00000000       0.88545455       0.00000000       0.00000000      62.78242493
2
Properties=species:S:1:pos:R:3:forces:R:3 energy=44.97864527334443 pbc="F F F"
Ru       0.00000000       0.00000000       0.00000000       0.00000000       0.00000000     -76.67556000
Ru       0.00000000       0.00000000       0.94424242       0.00000000       0.00000000      76.67556000
2
Properties=species:S:1:pos:R:3:forces:R:3 energy=42.6202934675236 pbc="F F F"
Ru       0.00000000       0.00000000       0.00000000       0.00000000       0.00000000     -30.55094147
Ru       0.00000000       0.00000000       1.00303030       0.00000000       0.00000000      30.55094147
2
Properties=species:S:1:pos:R:3:forces:R:3 energy=39.41861919923616 pbc="F F F"
Ru       0.00000000       0.00000000       0.00000000       0.00000000       0.00000000     -78.16177368
Ru       0.00000000       0.00000000       1.06181818       0.00000000       0.00000000      78.16177368
2
Properties=species:S:1:pos:R:3:forces:R:3 energy=33.363349577444794 pbc="F F F"
Ru       0.00000000       0.00000000       0.00000000       0.00000000       0.00000000    -122.92751312
Ru       0.00000000       0.00000000       1.12060606       0.00000000       0.00000000     122.92751312
2
Properties=species:S:1:pos:R:3:forces:R:3 energy=25.815942521891206 pbc="F F F"
Ru       0.00000000       0.00000000       0.00000000       0.00000000       0.00000000    -130.17071533
Ru       0.00000000       0.00000000       1.17939394       0.00000000       0.00000000     130.17071533
2
Properties=species:S:1:pos:R:3:forces:R:3 energy=18.329363307633734 pbc="F F F"
Ru       0.00000000       0.00000000       0.00000000       0.00000000       0.00000000    -122.34745789
Ru       0.00000000       0.00000000       1.23818182       0.00000000       0.00000000     122.34745789
2
Properties=species:S:1:pos:R:3:forces:R:3 energy=11.721084528774481 pbc="F F F"
Ru       0.00000000       0.00000000       0.00000000       0.00000000       0.00000000    -100.24700928
Ru       0.00000000       0.00000000       1.29696970       0.00000000       0.00000000     100.24700928
2
Properties=species:S:1:pos:R:3:forces:R:3 energy=6.628674331179844 pbc="F F F"
Ru       0.00000000       0.00000000       0.00000000       0.00000000       0.00000000     -74.06951904
Ru       0.00000000       0.00000000       1.35575758       0.00000000       0.00000000      74.06951904
2
Properties=species:S:1:pos:R:3:forces:R:3 energy=2.773360077123838 pbc="F F F"
Ru       0.00000000       0.00000000       0.00000000       0.00000000       0.00000000     -59.06250763
Ru       0.00000000       0.00000000       1.41454545       0.00000000       0.00000000      59.06250763
2
Properties=species:S:1:pos:R:3:forces:R:3 energy=-0.4145744842051638 pbc="F F F"
Ru       0.00000000       0.00000000       0.00000000       0.00000000       0.00000000     -49.17328262
Ru       0.00000000       0.00000000       1.47333333       0.00000000       0.00000000      49.17328262
2
Properties=species:S:1:pos:R:3:forces:R:3 energy=-2.968688923918303 pbc="F F F"
Ru       0.00000000       0.00000000       0.00000000       0.00000000       0.00000000     -37.74603653
Ru       0.00000000       0.00000000       1.53212121       0.00000000       0.00000000      37.74603653
2
Properties=species:S:1:pos:R:3:forces:R:3 energy=-4.884120651577211 pbc="F F F"
Ru       0.00000000       0.00000000       0.00000000       0.00000000       0.00000000     -27.62170029
Ru       0.00000000       0.00000000       1.59090909       0.00000000       0.00000000      27.62170029
2
Properties=species:S:1:pos:R:3:forces:R:3 energy=-6.221309439218814 pbc="F F F"
Ru       0.00000000       0.00000000       0.00000000       0.00000000       0.00000000     -17.92079735
Ru       0.00000000       0.00000000       1.64969697       0.00000000       0.00000000      17.92079735
2
Properties=species:S:1:pos:R:3:forces:R:3 energy=-7.02265014831602 pbc="F F F"
Ru       0.00000000       0.00000000       0.00000000       0.00000000       0.00000000      -9.82379341
Ru       0.00000000       0.00000000       1.70848485       0.00000000       0.00000000       9.82379341
2
Properties=species:S:1:pos:R:3:forces:R:3 energy=-7.442253939298917 pbc="F F F"
Ru       0.00000000       0.00000000       0.00000000       0.00000000       0.00000000      -4.99163914
Ru       0.00000000       0.00000000       1.76727273       0.00000000       0.00000000       4.99163914
2
Properties=species:S:1:pos:R:3:forces:R:3 energy=-7.660750924194607 pbc="F F F"
Ru       0.00000000       0.00000000       0.00000000       0.00000000       0.00000000      -2.75650811
Ru       0.00000000       0.00000000       1.82606061       0.00000000       0.00000000       2.75650811
2
Properties=species:S:1:pos:R:3:forces:R:3 energy=-7.790442245070707 pbc="F F F"
Ru       0.00000000       0.00000000       0.00000000       0.00000000       0.00000000      -1.76925433
Ru       0.00000000       0.00000000       1.88484848       0.00000000       0.00000000       1.76925433
2
Properties=species:S:1:pos:R:3:forces:R:3 energy=-7.874933630182996 pbc="F F F"
Ru       0.00000000       0.00000000       0.00000000       0.00000000       0.00000000      -1.11458182
Ru       0.00000000       0.00000000       1.94363636       0.00000000       0.00000000       1.11458182
2
Properties=species:S:1:pos:R:3:forces:R:3 energy=-7.9201131373011755 pbc="F F F"
Ru       0.00000000       0.00000000       0.00000000       0.00000000       0.00000000      -0.40032911
Ru       0.00000000       0.00000000       2.00242424       0.00000000       0.00000000       0.40032911
2
Properties=species:S:1:pos:R:3:forces:R:3 energy=-7.919465386401221 pbc="F F F"
Ru       0.00000000       0.00000000       0.00000000       0.00000000       0.00000000       0.43885633
Ru       0.00000000       0.00000000       2.06121212       0.00000000       0.00000000      -0.43885633
2
Properties=species:S:1:pos:R:3:forces:R:3 energy=-7.867583343933266 pbc="F F F"
Ru       0.00000000       0.00000000       0.00000000       0.00000000       0.00000000       1.32482326
Ru       0.00000000       0.00000000       2.12000000       0.00000000       0.00000000      -1.32482326
2
Properties=species:S:1:pos:R:3:forces:R:3 energy=-7.764880881961662 pbc="F F F"
Ru       0.00000000       0.00000000       0.00000000       0.00000000       0.00000000       2.15141129
Ru       0.00000000       0.00000000       2.17878788       0.00000000       0.00000000      -2.15141129
2
Properties=species:S:1:pos:R:3:forces:R:3 energy=-7.617413811695644 pbc="F F F"
Ru       0.00000000       0.00000000       0.00000000       0.00000000       0.00000000       2.83722377
Ru       0.00000000       0.00000000       2.23757576       0.00000000       0.00000000      -2.83722377
2
Properties=species:S:1:pos:R:3:forces:R:3 energy=-7.4349519303529945 pbc="F F F"
Ru       0.00000000       0.00000000       0.00000000       0.00000000       0.00000000       3.33746195
Ru       0.00000000       0.00000000       2.29636364       0.00000000       0.00000000      -3.33746195
2
Properties=species:S:1:pos:R:3:forces:R:3 energy=-7.228839344006279 pbc="F F F"
Ru       0.00000000       0.00000000       0.00000000       0.00000000       0.00000000       3.64345932
Ru       0.00000000       0.00000000       2.35515152       0.00000000       0.00000000      -3.64345932
2
Properties=species:S:1:pos:R:3:forces:R:3 energy=-7.009951499033786 pbc="F F F"
Ru       0.00000000       0.00000000       0.00000000       0.00000000       0.00000000       3.77707791
Ru       0.00000000       0.00000000       2.41393939       0.00000000       0.00000000      -3.77707791
2
Properties=species:S:1:pos:R:3:forces:R:3 energy=-6.787587258760225 pbc="F F F"
Ru       0.00000000       0.00000000       0.00000000       0.00000000       0.00000000       3.76428199
Ru       0.00000000       0.00000000       2.47272727       0.00000000       0.00000000      -3.76428199
2
Properties=species:S:1:pos:R:3:forces:R:3 energy=-6.57038032677779 pbc="F F F"
Ru       0.00000000       0.00000000       0.00000000       0.00000000       0.00000000       3.59595323
Ru       0.00000000       0.00000000       2.53151515       0.00000000       0.00000000      -3.59595323
2
Properties=species:S:1:pos:R:3:forces:R:3 energy=-6.368774390175341 pbc="F F F"
Ru       0.00000000       0.00000000       0.00000000       0.00000000       0.00000000       3.22494769
Ru       0.00000000       0.00000000       2.59030303       0.00000000       0.00000000      -3.22494769
2
Properties=species:S:1:pos:R:3:forces:R:3 energy=-6.195758876375259 pbc="F F F"
Ru       0.00000000       0.00000000       0.00000000       0.00000000       0.00000000       2.62477756
Ru       0.00000000       0.00000000       2.64909091       0.00000000       0.00000000      -2.62477756
2
Properties=species:S:1:pos:R:3:forces:R:3 energy=-6.063530317340238 pbc="F F F"
Ru       0.00000000       0.00000000       0.00000000       0.00000000       0.00000000       1.85575199
Ru       0.00000000       0.00000000       2.70787879       0.00000000       0.00000000      -1.85575199
2
Properties=species:S:1:pos:R:3:forces:R:3 energy=-5.978171666839192 pbc="F F F"
Ru       0.00000000       0.00000000       0.00000000       0.00000000       0.00000000       1.05561888
Ru       0.00000000       0.00000000       2.76666667       0.00000000       0.00000000      -1.05561888
2
Properties=species:S:1:pos:R:3:forces:R:3 energy=-5.937338019870672 pbc="F F F"
Ru       0.00000000       0.00000000       0.00000000       0.00000000       0.00000000       0.35946566
Ru       0.00000000       0.00000000       2.82545455       0.00000000       0.00000000      -0.35946566
2
Properties=species:S:1:pos:R:3:forces:R:3 energy=-5.932229680987387 pbc="F F F"
Ru       0.00000000       0.00000000       0.00000000       0.00000000       0.00000000      -0.15067396
Ru       0.00000000       0.00000000       2.88424242       0.00000000       0.00000000       0.15067396
2
Properties=species:S:1:pos:R:3:forces:R:3 energy=-5.950752885021018 pbc="F F F"
Ru       0.00000000       0.00000000       0.00000000       0.00000000       0.00000000      -0.44257921
Ru       0.00000000       0.00000000       2.94303030       0.00000000       0.00000000       0.44257921
2
Properties=species:S:1:pos:R:3:forces:R:3 energy=-5.980070547802095 pbc="F F F"
Ru       0.00000000       0.00000000       0.00000000       0.00000000       0.00000000      -0.52126884
Ru       0.00000000       0.00000000       3.00181818       0.00000000       0.00000000       0.52126884
2
Properties=species:S:1:pos:R:3:forces:R:3 energy=-6.0084769450582 pbc="F F F"
Ru       0.00000000       0.00000000       0.00000000       0.00000000       0.00000000      -0.41872397
Ru       0.00000000       0.00000000       3.06060606       0.00000000       0.00000000       0.41872397
2
Properties=species:S:1:pos:R:3:forces:R:3 energy=-6.0267437537137605 pbc="F F F"
Ru       0.00000000       0.00000000       0.00000000       0.00000000       0.00000000      -0.18591078
Ru       0.00000000       0.00000000       3.11939394       0.00000000       0.00000000       0.18591078
2
Properties=species:S:1:pos:R:3:forces:R:3 energy=-6.028969470838943 pbc="F F F"
Ru       0.00000000       0.00000000       0.00000000       0.00000000       0.00000000       0.11673485
Ru       0.00000000       0.00000000       3.17818182       0.00000000       0.00000000      -0.11673485
2
Properties=species:S:1:pos:R:3:forces:R:3 energy=-6.0127918525120885 pbc="F F F"
Ru       0.00000000       0.00000000       0.00000000       0.00000000       0.00000000       0.43139285
Ru       0.00000000       0.00000000       3.23696970       0.00000000       0.00000000      -0.43139285
2
Properties=species:S:1:pos:R:3:forces:R:3 energy=-5.978912373870097 pbc="F F F"
Ru       0.00000000       0.00000000       0.00000000       0.00000000       0.00000000       0.71275717
Ru       0.00000000       0.00000000       3.29575758       0.00000000       0.00000000      -0.71275717
2
Properties=species:S:1:pos:R:3:forces:R:3 energy=-5.930209561772565 pbc="F F F"
Ru       0.00000000       0.00000000       0.00000000       0.00000000       0.00000000       0.93239802
Ru       0.00000000       0.00000000       3.35454545       0.00000000       0.00000000      -0.93239802
2
Properties=species:S:1:pos:R:3:forces:R:3 energy=-5.870732451589594 pbc="F F F"
Ru       0.00000000       0.00000000       0.00000000       0.00000000       0.00000000       1.07864010
Ru       0.00000000       0.00000000       3.41333333       0.00000000       0.00000000      -1.07864010
2
Properties=species:S:1:pos:R:3:forces:R:3 energy=-5.804781561942985 pbc="F F F"
Ru       0.00000000       0.00000000       0.00000000       0.00000000       0.00000000       1.15409374
Ru       0.00000000       0.00000000       3.47212121       0.00000000       0.00000000      -1.15409374
2
Properties=species:S:1:pos:R:3:forces:R:3 energy=-5.736174196351404 pbc="F F F"
Ru       0.00000000       0.00000000       0.00000000       0.00000000       0.00000000       1.17182529
Ru       0.00000000       0.00000000       3.53090909       0.00000000       0.00000000      -1.17182529
2
Properties=species:S:1:pos:R:3:forces:R:3 energy=-5.667770650828813 pbc="F F F"
Ru       0.00000000       0.00000000       0.00000000       0.00000000       0.00000000       1.15038681
Ru       0.00000000       0.00000000       3.58969697       0.00000000       0.00000000      -1.15038681
2
Properties=species:S:1:pos:R:3:forces:R:3 energy=-5.601315401768208 pbc="F F F"
Ru       0.00000000       0.00000000       0.00000000       0.00000000       0.00000000       1.10843575
Ru       0.00000000       0.00000000       3.64848485       0.00000000       0.00000000      -1.10843575
2
Properties=species:S:1:pos:R:3:forces:R:3 energy=-5.53756368320045 pbc="F F F"
Ru       0.00000000       0.00000000       0.00000000       0.00000000       0.00000000       1.06026399
Ru       0.00000000       0.00000000       3.70727273       0.00000000       0.00000000      -1.06026399
2
Properties=species:S:1:pos:R:3:forces:R:3 energy=-5.476620416643442 pbc="F F F"
Ru       0.00000000       0.00000000       0.00000000       0.00000000       0.00000000       1.01355994
Ru       0.00000000       0.00000000       3.76606061       0.00000000       0.00000000      -1.01355994
2
Properties=species:S:1:pos:R:3:forces:R:3 energy=-5.418334758172576 pbc="F F F"
Ru       0.00000000       0.00000000       0.00000000       0.00000000       0.00000000       0.96970898
Ru       0.00000000       0.00000000       3.82484848       0.00000000       0.00000000      -0.96970898
2
Properties=species:S:1:pos:R:3:forces:R:3 energy=-5.362602845666684 pbc="F F F"
Ru       0.00000000       0.00000000       0.00000000       0.00000000       0.00000000       0.92597646
Ru       0.00000000       0.00000000       3.88363636       0.00000000       0.00000000      -0.92597646
2
Properties=species:S:1:pos:R:3:forces:R:3 energy=-5.3095400003785915 pbc="F F F"
Ru       0.00000000       0.00000000       0.00000000       0.00000000       0.00000000       0.87830126
Ru       0.00000000       0.00000000       3.94242424       0.00000000       0.00000000      -0.87830126
2
Properties=species:S:1:pos:R:3:forces:R:3 energy=-5.259476867888345 pbc="F F F"
Ru       0.00000000       0.00000000       0.00000000       0.00000000       0.00000000       0.82354766
Ru       0.00000000       0.00000000       4.00121212       0.00000000       0.00000000      -0.82354766
2
Properties=species:S:1:pos:R:3:forces:R:3 energy=-5.212872232930986 pbc="F F F"
Ru       0.00000000       0.00000000       0.00000000       0.00000000       0.00000000       0.76063567
Ru       0.00000000       0.00000000       4.06000000       0.00000000       0.00000000      -0.76063567
2
Properties=species:S:1:pos:R:3:forces:R:3 energy=-5.1701855486520305 pbc="F F F"
Ru       0.00000000       0.00000000       0.00000000       0.00000000       0.00000000       0.69060624
Ru       0.00000000       0.00000000       4.11878788       0.00000000       0.00000000      -0.69060624
2
Properties=species:S:1:pos:R:3:forces:R:3 energy=-5.131764482233686 pbc="F F F"
Ru       0.00000000       0.00000000       0.00000000       0.00000000       0.00000000       0.61595905
Ru       0.00000000       0.00000000       4.17757576       0.00000000       0.00000000      -0.61595905
2
Properties=species:S:1:pos:R:3:forces:R:3 energy=-5.097791751551453 pbc="F F F"
Ru       0.00000000       0.00000000       0.00000000       0.00000000       0.00000000       0.53981960
Ru       0.00000000       0.00000000       4.23636364       0.00000000       0.00000000      -0.53981960
2
Properties=species:S:1:pos:R:3:forces:R:3 energy=-5.06826317165791 pbc="F F F"
Ru       0.00000000       0.00000000       0.00000000       0.00000000       0.00000000       0.46523651
Ru       0.00000000       0.00000000       4.29515152       0.00000000       0.00000000      -0.46523651
2
Properties=species:S:1:pos:R:3:forces:R:3 energy=-5.043009497425155 pbc="F F F"
Ru       0.00000000       0.00000000       0.00000000       0.00000000       0.00000000       0.39481676
Ru       0.00000000       0.00000000       4.35393939       0.00000000       0.00000000      -0.39481676
2
Properties=species:S:1:pos:R:3:forces:R:3 energy=-5.0217200214804025 pbc="F F F"
Ru       0.00000000       0.00000000       0.00000000       0.00000000       0.00000000       0.33064961
Ru       0.00000000       0.00000000       4.41272727       0.00000000       0.00000000      -0.33064961
2
Properties=species:S:1:pos:R:3:forces:R:3 energy=-5.003976423308583 pbc="F F F"
Ru       0.00000000       0.00000000       0.00000000       0.00000000       0.00000000       0.27446964
Ru       0.00000000       0.00000000       4.47151515       0.00000000       0.00000000      -0.27446964
2
Properties=species:S:1:pos:R:3:forces:R:3 energy=-4.989262058905365 pbc="F F F"
Ru       0.00000000       0.00000000       0.00000000       0.00000000       0.00000000       0.22781999
Ru       0.00000000       0.00000000       4.53030303       0.00000000       0.00000000      -0.22781999
2
Properties=species:S:1:pos:R:3:forces:R:3 energy=-4.976975681348804 pbc="F F F"
Ru       0.00000000       0.00000000       0.00000000       0.00000000       0.00000000       0.19210592
Ru       0.00000000       0.00000000       4.58909091       0.00000000       0.00000000      -0.19210592
2
Properties=species:S:1:pos:R:3:forces:R:3 energy=-4.966439010005244 pbc="F F F"
Ru       0.00000000       0.00000000       0.00000000       0.00000000       0.00000000       0.16842996
Ru       0.00000000       0.00000000       4.64787879       0.00000000       0.00000000      -0.16842996
2
Properties=species:S:1:pos:R:3:forces:R:3 energy=-4.956927519036162 pbc="F F F"
Ru       0.00000000       0.00000000       0.00000000       0.00000000       0.00000000       0.15723044
Ru       0.00000000       0.00000000       4.70666667       0.00000000       0.00000000      -0.15723044
2
Properties=species:S:1:pos:R:3:forces:R:3 energy=-4.947719984113116 pbc="F F F"
Ru       0.00000000       0.00000000       0.00000000       0.00000000       0.00000000       0.15786441
Ru       0.00000000       0.00000000       4.76545455       0.00000000       0.00000000      -0.15786441
2
Properties=species:S:1:pos:R:3:forces:R:3 energy=-4.938171877326236 pbc="F F F"
Ru       0.00000000       0.00000000       0.00000000       0.00000000       0.00000000       0.16835895
Ru       0.00000000       0.00000000       4.82424242       0.00000000       0.00000000      -0.16835895
2
Properties=species:S:1:pos:R:3:forces:R:3 energy=-4.927794888115874 pbc="F F F"
Ru       0.00000000       0.00000000       0.00000000       0.00000000       0.00000000       0.18549494
Ru       0.00000000       0.00000000       4.88303030       0.00000000       0.00000000      -0.18549494
2
Properties=species:S:1:pos:R:3:forces:R:3 energy=-4.916309849029339 pbc="F F F"
Ru       0.00000000       0.00000000       0.00000000       0.00000000       0.00000000       0.20530084
Ru       0.00000000       0.00000000       4.94181818       0.00000000       0.00000000      -0.20530084
2
Properties=species:S:1:pos:R:3:forces:R:3 energy=-4.903683423671683 pbc="F F F"
Ru       0.00000000       0.00000000       0.00000000       0.00000000       0.00000000       0.22371534
Ru       0.00000000       0.00000000       5.00060606       0.00000000       0.00000000      -0.22371534
2
Properties=species:S:1:pos:R:3:forces:R:3 energy=-4.890101012518874 pbc="F F F"
Ru       0.00000000       0.00000000       0.00000000       0.00000000       0.00000000       0.23730913
Ru       0.00000000       0.00000000       5.05939394       0.00000000       0.00000000      -0.23730913
2
Properties=species:S:1:pos:R:3:forces:R:3 energy=-4.875922798368055 pbc="F F F"
Ru       0.00000000       0.00000000       0.00000000       0.00000000       0.00000000       0.24375555
Ru       0.00000000       0.00000000       5.11818182       0.00000000       0.00000000      -0.24375555
2
Properties=species:S:1:pos:R:3:forces:R:3 energy=-4.861603252724638 pbc="F F F"
Ru       0.00000000       0.00000000       0.00000000       0.00000000       0.00000000       0.24202241
Ru       0.00000000       0.00000000       5.17696970       0.00000000       0.00000000      -0.24202241
2
Properties=species:S:1:pos:R:3:forces:R:3 energy=-4.847623977790737 pbc="F F F"
Ru       0.00000000       0.00000000       0.00000000       0.00000000       0.00000000       0.23231682
Ru       0.00000000       0.00000000       5.23575758       0.00000000       0.00000000      -0.23231682
2
Properties=species:S:1:pos:R:3:forces:R:3 energy=-4.834422629218192 pbc="F F F"
Ru       0.00000000       0.00000000       0.00000000       0.00000000       0.00000000       0.21579388
Ru       0.00000000       0.00000000       5.29454545       0.00000000       0.00000000      -0.21579388
2
Properties=species:S:1:pos:R:3:forces:R:3 energy=-4.8223506154017555 pbc="F F F"
Ru       0.00000000       0.00000000       0.00000000       0.00000000       0.00000000       0.19422266
Ru       0.00000000       0.00000000       5.35333333       0.00000000       0.00000000      -0.19422266
2
Properties=species:S:1:pos:R:3:forces:R:3 energy=-4.811646876187121 pbc="F F F"
Ru       0.00000000       0.00000000       0.00000000       0.00000000       0.00000000       0.16960810
Ru       0.00000000       0.00000000       5.41212121       0.00000000       0.00000000      -0.16960810
2
Properties=species:S:1:pos:R:3:forces:R:3 energy=-4.802430316832839 pbc="F F F"
Ru       0.00000000       0.00000000       0.00000000       0.00000000       0.00000000       0.14387907
Ru       0.00000000       0.00000000       5.47090909       0.00000000       0.00000000      -0.14387907
2
Properties=species:S:1:pos:R:3:forces:R:3 energy=-4.79471941693851 pbc="F F F"
Ru       0.00000000       0.00000000       0.00000000       0.00000000       0.00000000       0.11863832
Ru       0.00000000       0.00000000       5.52969697       0.00000000       0.00000000      -0.11863832
2
Properties=species:S:1:pos:R:3:forces:R:3 energy=-4.788448522103718 pbc="F F F"
Ru       0.00000000       0.00000000       0.00000000       0.00000000       0.00000000       0.09506437
Ru       0.00000000       0.00000000       5.58848485       0.00000000       0.00000000      -0.09506437
2
Properties=species:S:1:pos:R:3:forces:R:3 energy=-4.783496932578591 pbc="F F F"
Ru       0.00000000       0.00000000       0.00000000       0.00000000       0.00000000       0.07391067
Ru       0.00000000       0.00000000       5.64727273       0.00000000       0.00000000      -0.07391067
2
Properties=species:S:1:pos:R:3:forces:R:3 energy=-4.77970421432193 pbc="F F F"
Ru       0.00000000       0.00000000       0.00000000       0.00000000       0.00000000       0.05556288
Ru       0.00000000       0.00000000       5.70606061       0.00000000       0.00000000      -0.05556288
2
Properties=species:S:1:pos:R:3:forces:R:3 energy=-4.7769012718200905 pbc="F F F"
Ru       0.00000000       0.00000000       0.00000000       0.00000000       0.00000000       0.04017973
Ru       0.00000000       0.00000000       5.76484848       0.00000000       0.00000000      -0.04017973
2
Properties=species:S:1:pos:R:3:forces:R:3 energy=-4.774917493516757 pbc="F F F"
Ru       0.00000000       0.00000000       0.00000000       0.00000000       0.00000000       0.02783838
Ru       0.00000000       0.00000000       5.82363636       0.00000000       0.00000000      -0.02783838
2
Properties=species:S:1:pos:R:3:forces:R:3 energy=-4.773570289905857 pbc="F F F"
Ru       0.00000000       0.00000000       0.00000000       0.00000000       0.00000000       0.01861881
Ru       0.00000000       0.00000000       5.88242424       0.00000000       0.00000000      -0.01861881
2
Properties=species:S:1:pos:R:3:forces:R:3 energy=-4.7726661034347275 pbc="F F F"
Ru       0.00000000       0.00000000       0.00000000       0.00000000       0.00000000       0.01265767
Ru       0.00000000       0.00000000       5.94121212       0.00000000       0.00000000      -0.01265767
2
Properties=species:S:1:pos:R:3:forces:R:3 energy=-4.772012320721552 pbc="F F F"
Ru       0.00000000       0.00000000       0.00000000       0.00000000       0.00000000       0.01020642
Ru       0.00000000       0.00000000       6.00000000       0.00000000       0.00000000      -0.01020642
