2
Properties=species:S:1:pos:R:3:forces:R:3 energy=36311.81070512439 pbc="F F F"
Ru       0.00000000       0.00000000       0.00000000       0.00000000       0.00000000 -863336.50000000
Ru       0.00000000       0.00000000       0.10000000       0.00000000       0.00000000  863336.50000000
2
Properties=species:S:1:pos:R:3:forces:R:3 energy=10777.05386918689 pbc="F F F"
Ru       0.00000000       0.00000000       0.00000000       0.00000000       0.00000000 -191140.23437500
Ru       0.00000000       0.00000000       0.15959596       0.00000000       0.00000000  191140.23437500
2
Properties=species:S:1:pos:R:3:forces:R:3 energy=4148.944005905641 pbc="F F F"
Ru       0.00000000       0.00000000       0.00000000       0.00000000       0.00000000  -60554.21093750
Ru       0.00000000       0.00000000       0.21919192       0.00000000       0.00000000   60554.21093750
2
Properties=species:S:1:pos:R:3:forces:R:3 energy=1847.2329463384956 pbc="F F F"
Ru       0.00000000       0.00000000       0.00000000       0.00000000       0.00000000  -23447.03320312
Ru       0.00000000       0.00000000       0.27878788       0.00000000       0.00000000   23447.03320312
2
Properties=species:S:1:pos:R:3:forces:R:3 energy=904.3354243658392 pbc="F F F"
Ru       0.00000000       0.00000000       0.00000000       0.00000000       0.00000000  -10246.23925781
Ru       0.00000000       0.00000000       0.33838384       0.00000000       0.00000000   10246.23925781
2
Properties=species:S:1:pos:R:3:forces:R:3 energy=476.95792193076863 pbc="F F F"
Ru       0.00000000       0.00000000       0.00000000       0.00000000       0.00000000   -4841.42871094
Ru       0.00000000       0.00000000       0.39797980       0.00000000       0.00000000    4841.42871094
2
Properties=species:S:1:pos:R:3:forces:R:3 energy=269.85782428718994 pbc="F F F"
Ru       0.00000000       0.00000000       0.00000000       0.00000000       0.00000000   -2413.63964844
Ru       0.00000000       0.00000000       0.45757576       0.00000000       0.00000000    2413.63964844
2
Properties=species:S:1:pos:R:3:forces:R:3 energy=164.83199118581751 pbc="F F F"
Ru       0.00000000       0.00000000       0.00000000       0.00000000       0.00000000   -1246.15722656
Ru       0.00000000       0.00000000       0.51717172       0.00000000       0.00000000    1246.15722656
2
Properties=species:S:1:pos:R:3:forces:R:3 energy=110.10740474651843 pbc="F F F"
Ru       0.00000000       0.00000000       0.00000000       0.00000000       0.00000000    -656.31280518
Ru       0.00000000       0.00000000       0.57676768       0.00000000       0.00000000     656.31280518
2
Properties=species:S:1:pos:R:3:forces:R:3 energy=80.8924237434446 pbc="F F F"
Ru       0.00000000       0.00000000       0.00000000       0.00000000       0.00000000    -354.06582642
Ru       0.00000000       0.00000000       0.63636364       0.00000000       0.00000000     354.06582642
2
Properties=species:S:1:pos:R:3:forces:R:3 energy=65.29347825564953 pbc="F F F"
Ru       0.00000000       0.00000000       0.00000000       0.00000000       0.00000000    -186.71115112
Ru       0.00000000       0.00000000       0.69595960       0.00000000       0.00000000     186.71115112
2
Properties=species:S:1:pos:R:3:forces:R:3 energy=57.19518895914058 pbc="F F F"
Ru       0.00000000       0.00000000       0.00000000       0.00000000       0.00000000     -93.09509277
Ru       0.00000000       0.00000000       0.75555556       0.00000000       0.00000000      93.09509277
2
Properties=species:S:1:pos:R:3:forces:R:3 energy=53.21305347470732 pbc="F F F"
Ru       0.00000000       0.00000000       0.00000000       0.00000000       0.00000000     -50.83066177
Ru       0.00000000       0.00000000       0.81515152       0.00000000       0.00000000      50.83066177
2
Properties=species:S:1:pos:R:3:forces:R:3 energy=50.1233398457347 pbc="F F F"
Ru       0.00000000       0.00000000       0.00000000       0.00000000       0.00000000     -58.25761795
Ru       0.00000000       0.00000000       0.87474747       0.00000000       0.00000000      58.25761795
2
Properties=species:S:1:pos:R:3:forces:R:3 energy=45.779384447632914 pbc="F F F"
Ru       0.00000000       0.00000000       0.00000000       0.00000000       0.00000000     -83.74098206
Ru       0.00000000       0.00000000       0.93434343       0.00000000       0.00000000      83.74098206
2
Properties=species:S:1:pos:R:3:forces:R:3 energy=42.87334125858337 pbc="F F F"
Ru       0.00000000       0.00000000       0.00000000       0.00000000       0.00000000     -25.57448769
Ru       0.00000000       0.00000000       0.99393939       0.00000000       0.00000000      25.57448769
2
Properties=species:S:1:pos:R:3:forces:R:3 energy=40.038476806756236 pbc="F F F"
Ru       0.00000000       0.00000000       0.00000000       0.00000000       0.00000000     -71.57273102
Ru       0.00000000       0.00000000       1.05353535       0.00000000       0.00000000      71.57273102
2
Properties=species:S:1:pos:R:3:forces:R:3 energy=34.27061407150554 pbc="F F F"
Ru       0.00000000       0.00000000       0.00000000       0.00000000       0.00000000    -119.67549896
Ru       0.00000000       0.00000000       1.11313131       0.00000000       0.00000000     119.67549896
2
Properties=species:S:1:pos:R:3:forces:R:3 energy=26.684197883699806 pbc="F F F"
Ru       0.00000000       0.00000000       0.00000000       0.00000000       0.00000000    -130.26797485
Ru       0.00000000       0.00000000       1.17272727       0.00000000       0.00000000     130.26797485
2
Properties=species:S:1:pos:R:3:forces:R:3 energy=19.050285489454694 pbc="F F F"
Ru       0.00000000       0.00000000       0.00000000       0.00000000       0.00000000    -123.74363708
Ru       0.00000000       0.00000000       1.23232323       0.00000000       0.00000000     123.74363708
2
Properties=species:S:1:pos:R:3:forces:R:3 energy=12.233302687334064 pbc="F F F"
Ru       0.00000000       0.00000000       0.00000000       0.00000000       0.00000000    -102.59724426
Ru       0.00000000       0.00000000       1.29191919       0.00000000       0.00000000     102.59724426
2
Properties=species:S:1:pos:R:3:forces:R:3 energy=6.946261851036545 pbc="F F F"
Ru       0.00000000       0.00000000       0.00000000       0.00000000       0.00000000     -75.65732574
Ru       0.00000000       0.00000000       1.35151515       0.00000000       0.00000000      75.65732574
2
Properties=species:S:1:pos:R:3:forces:R:3 energy=2.9772390945511455 pbc="F F F"
Ru       0.00000000       0.00000000       0.00000000       0.00000000       0.00000000     -59.66147614
Ru       0.00000000       0.00000000       1.41111111       0.00000000       0.00000000      59.66147614
2
Properties=species:S:1:pos:R:3:forces:R:3 energy=-0.28478402122673396 pbc="F F F"
Ru       0.00000000       0.00000000       0.00000000       0.00000000       0.00000000     -49.66218567
Ru       0.00000000       0.00000000       1.47070707       0.00000000       0.00000000      49.66218567
2
Properties=species:S:1:pos:R:3:forces:R:3 energy=-2.899741165879206 pbc="F F F"
Ru       0.00000000       0.00000000       0.00000000       0.00000000       0.00000000     -38.08530807
Ru       0.00000000       0.00000000       1.53030303       0.00000000       0.00000000      38.08530807
2
Properties=species:S:1:pos:R:3:forces:R:3 energy=-4.856139074025398 pbc="F F F"
Ru       0.00000000       0.00000000       0.00000000       0.00000000       0.00000000     -27.78903389
Ru       0.00000000       0.00000000       1.58989899       0.00000000       0.00000000      27.78903389
2
Properties=species:S:1:pos:R:3:forces:R:3 energy=-6.217684093822328 pbc="F F F"
Ru       0.00000000       0.00000000       0.00000000       0.00000000       0.00000000     -17.95296860
Ru       0.00000000       0.00000000       1.64949495       0.00000000       0.00000000      17.95296860
2
Properties=species:S:1:pos:R:3:forces:R:3 energy=-7.028584711531553 pbc="F F F"
Ru       0.00000000       0.00000000       0.00000000       0.00000000       0.00000000      -9.75677586
Ru       0.00000000       0.00000000       1.70909091       0.00000000       0.00000000       9.75677586
2
Properties=species:S:1:pos:R:3:forces:R:3 energy=-7.449255852639851 pbc="F F F"
Ru       0.00000000       0.00000000       0.00000000       0.00000000       0.00000000      -4.91294861
Ru       0.00000000       0.00000000       1.76868687       0.00000000       0.00000000       4.91294861
2
Properties=species:S:1:pos:R:3:forces:R:3 energy=-7.666817894580671 pbc="F F F"
Ru       0.00000000       0.00000000       0.00000000       0.00000000       0.00000000      -2.70408773
Ru       0.00000000       0.00000000       1.82828283       0.00000000       0.00000000       2.70408773
2
Properties=species:S:1:pos:R:3:forces:R:3 energy=-7.795747787374511 pbc="F F F"
Ru       0.00000000       0.00000000       0.00000000       0.00000000       0.00000000      -1.73264694
Ru       0.00000000       0.00000000       1.88787879       0.00000000       0.00000000       1.73264694
2
Properties=species:S:1:pos:R:3:forces:R:3 energy=-7.879127307107125 pbc="F F F"
Ru       0.00000000       0.00000000       0.00000000       0.00000000       0.00000000      -1.07172608
Ru       0.00000000       0.00000000       1.94747475       0.00000000       0.00000000       1.07172608
2
Properties=species:S:1:pos:R:3:forces:R:3 energy=-7.92182713112194 pbc="F F F"
Ru       0.00000000       0.00000000       0.00000000       0.00000000       0.00000000      -0.33803263
Ru       0.00000000       0.00000000       2.00707071       0.00000000       0.00000000       0.33803263
2
Properties=species:S:1:pos:R:3:forces:R:3 energy=-7.9168472432837875 pbc="F F F"
Ru       0.00000000       0.00000000       0.00000000       0.00000000       0.00000000       0.52075654
Ru       0.00000000       0.00000000       2.06666667       0.00000000       0.00000000      -0.52075654
2
Properties=species:S:1:pos:R:3:forces:R:3 energy=-7.858995861510108 pbc="F F F"
Ru       0.00000000       0.00000000       0.00000000       0.00000000       0.00000000       1.41743004
Ru       0.00000000       0.00000000       2.12626263       0.00000000       0.00000000      -1.41743004
2
Properties=species:S:1:pos:R:3:forces:R:3 energy=-7.749343681051978 pbc="F F F"
Ru       0.00000000       0.00000000       0.00000000       0.00000000       0.00000000       2.24257159
Ru       0.00000000       0.00000000       2.18585859       0.00000000       0.00000000      -2.24257159
2
Properties=species:S:1:pos:R:3:forces:R:3 energy=-7.594748145753961 pbc="F F F"
Ru       0.00000000       0.00000000       0.00000000       0.00000000       0.00000000       2.91559172
Ru       0.00000000       0.00000000       2.24545455       0.00000000       0.00000000      -2.91559172
2
Properties=species:S:1:pos:R:3:forces:R:3 energy=-7.405707600847387 pbc="F F F"
Ru       0.00000000       0.00000000       0.00000000       0.00000000       0.00000000       3.39465880
Ru       0.00000000       0.00000000       2.30505051       0.00000000       0.00000000      -3.39465880
2
Properties=species:S:1:pos:R:3:forces:R:3 energy=-7.194084845735718 pbc="F F F"
Ru       0.00000000       0.00000000       0.00000000       0.00000000       0.00000000       3.67586946
Ru       0.00000000       0.00000000       2.36464646       0.00000000       0.00000000      -3.67586946
2
Properties=species:S:1:pos:R:3:forces:R:3 energy=-6.9709910333063725 pbc="F F F"
Ru       0.00000000       0.00000000       0.00000000       0.00000000       0.00000000       3.78504014
Ru       0.00000000       0.00000000       2.42424242       0.00000000       0.00000000      -3.78504014
2
Properties=species:S:1:pos:R:3:forces:R:3 energy=-6.745859796675852 pbc="F F F"
Ru       0.00000000       0.00000000       0.00000000       0.00000000       0.00000000       3.74549294
Ru       0.00000000       0.00000000       2.48383838       0.00000000       0.00000000      -3.74549294
2
Properties=species:S:1:pos:R:3:forces:R:3 energy=-6.5278510093724 pbc="F F F"
Ru       0.00000000       0.00000000       0.00000000       0.00000000       0.00000000       3.53880215
Ru       0.00000000       0.00000000       2.54343434       0.00000000       0.00000000      -3.53880215
2
Properties=species:S:1:pos:R:3:forces:R:3 energy=-6.3284236002169925 pbc="F F F"
Ru       0.00000000       0.00000000       0.00000000       0.00000000       0.00000000       3.11397123
Ru       0.00000000       0.00000000       2.60303030       0.00000000       0.00000000      -3.11397123
2
Properties=species:S:1:pos:R:3:forces:R:3 energy=-6.161347783777154 pbc="F F F"
Ru       0.00000000       0.00000000       0.00000000       0.00000000       0.00000000       2.45844936
Ru       0.00000000       0.00000000       2.66262626       0.00000000       0.00000000      -2.45844936
2
Properties=species:S:1:pos:R:3:forces:R:3 energy=-6.038334237805111 pbc="F F F"
Ru       0.00000000       0.00000000       0.00000000       0.00000000       0.00000000       1.65755415
Ru       0.00000000       0.00000000       2.72222222       0.00000000       0.00000000      -1.65755415
2
Properties=species:S:1:pos:R:3:forces:R:3 energy=-5.96365433936978 pbc="F F F"
Ru       0.00000000       0.00000000       0.00000000       0.00000000       0.00000000       0.86195785
Ru       0.00000000       0.00000000       2.78181818       0.00000000       0.00000000      -0.86195785
2
Properties=species:S:1:pos:R:3:forces:R:3 energy=-5.932889233931524 pbc="F F F"
Ru       0.00000000       0.00000000       0.00000000       0.00000000       0.00000000       0.20044036
Ru       0.00000000       0.00000000       2.84141414       0.00000000       0.00000000      -0.20044036
2
Properties=species:S:1:pos:R:3:forces:R:3 energy=-5.935668605752468 pbc="F F F"
Ru       0.00000000       0.00000000       0.00000000       0.00000000       0.00000000      -0.25655636
Ru       0.00000000       0.00000000       2.90101010       0.00000000       0.00000000       0.25655636
2
Properties=species:S:1:pos:R:3:forces:R:3 energy=-5.958953833481961 pbc="F F F"
Ru       0.00000000       0.00000000       0.00000000       0.00000000       0.00000000      -0.48744124
Ru       0.00000000       0.00000000       2.96060606       0.00000000       0.00000000       0.48744124
2
Properties=species:S:1:pos:R:3:forces:R:3 energy=-5.989545113200413 pbc="F F F"
Ru       0.00000000       0.00000000       0.00000000       0.00000000       0.00000000      -0.50658447
Ru       0.00000000       0.00000000       3.02020202       0.00000000       0.00000000       0.50658447
2
Properties=species:S:1:pos:R:3:forces:R:3 energy=-6.015915022399995 pbc="F F F"
Ru       0.00000000       0.00000000       0.00000000       0.00000000       0.00000000      -0.35418585
Ru       0.00000000       0.00000000       3.07979798       0.00000000       0.00000000       0.35418585
2
Properties=species:S:1:pos:R:3:forces:R:3 energy=-6.029491166391203 pbc="F F F"
Ru       0.00000000       0.00000000       0.00000000       0.00000000       0.00000000      -0.08771710
Ru       0.00000000       0.00000000       3.13939394       0.00000000       0.00000000       0.08771710
2
Properties=species:S:1:pos:R:3:forces:R:3 energy=-6.025368686876773 pbc="F F F"
Ru       0.00000000       0.00000000       0.00000000       0.00000000       0.00000000       0.22940552
Ru       0.00000000       0.00000000       3.19898990       0.00000000       0.00000000      -0.22940552
2
Properties=species:S:1:pos:R:3:forces:R:3 energy=-6.002276178945962 pbc="F F F"
Ru       0.00000000       0.00000000       0.00000000       0.00000000       0.00000000       0.54060364
Ru       0.00000000       0.00000000       3.25858586       0.00000000       0.00000000      -0.54060364
2
Properties=species:S:1:pos:R:3:forces:R:3 energy=-5.961878655240772 pbc="F F F"
Ru       0.00000000       0.00000000       0.00000000       0.00000000       0.00000000       0.80480391
Ru       0.00000000       0.00000000       3.31818182       0.00000000       0.00000000      -0.80480391
2
Properties=species:S:1:pos:R:3:forces:R:3 energy=-5.907750151629646 pbc="F F F"
Ru       0.00000000       0.00000000       0.00000000       0.00000000       0.00000000       0.99910194
Ru       0.00000000       0.00000000       3.37777778       0.00000000       0.00000000      -0.99910194
2
Properties=species:S:1:pos:R:3:forces:R:3 energy=-5.844311089936835 pbc="F F F"
Ru       0.00000000       0.00000000       0.00000000       0.00000000       0.00000000       1.11749589
Ru       0.00000000       0.00000000       3.43737374       0.00000000       0.00000000      -1.11749589
2
Properties=species:S:1:pos:R:3:forces:R:3 energy=-5.775915903061242 pbc="F F F"
Ru       0.00000000       0.00000000       0.00000000       0.00000000       0.00000000       1.16762161
Ru       0.00000000       0.00000000       3.49696970       0.00000000       0.00000000      -1.16762161
2
Properties=species:S:1:pos:R:3:forces:R:3 energy=-5.706166993018646 pbc="F F F"
Ru       0.00000000       0.00000000       0.00000000       0.00000000       0.00000000       1.16613126
Ru       0.00000000       0.00000000       3.55656566       0.00000000       0.00000000      -1.16613126
2
Properties=species:S:1:pos:R:3:forces:R:3 energy=-5.637549047526517 pbc="F F F"
Ru       0.00000000       0.00000000       0.00000000       0.00000000       0.00000000       1.13304651
Ru       0.00000000       0.00000000       3.61616162       0.00000000       0.00000000      -1.13304651
2
Properties=species:S:1:pos:R:3:forces:R:3 energy=-5.5713866965316035 pbc="F F F"
Ru       0.00000000       0.00000000       0.00000000       0.00000000       0.00000000       1.08623290
Ru       0.00000000       0.00000000       3.67575758       0.00000000       0.00000000      -1.08623290
2
Properties=species:S:1:pos:R:3:forces:R:3 energy=-5.508110733064024 pbc="F F F"
Ru       0.00000000       0.00000000       0.00000000       0.00000000       0.00000000       1.03755879
Ru       0.00000000       0.00000000       3.73535354       0.00000000       0.00000000      -1.03755879
2
Properties=species:S:1:pos:R:3:forces:R:3 energy=-5.447656698416373 pbc="F F F"
Ru       0.00000000       0.00000000       0.00000000       0.00000000       0.00000000       0.99176180
Ru       0.00000000       0.00000000       3.79494949       0.00000000       0.00000000      -0.99176180
2
Properties=species:S:1:pos:R:3:forces:R:3 energy=-5.389860834383071 pbc="F F F"
Ru       0.00000000       0.00000000       0.00000000       0.00000000       0.00000000       0.94785672
Ru       0.00000000       0.00000000       3.85454545       0.00000000       0.00000000      -0.94785672
2
Properties=species:S:1:pos:R:3:forces:R:3 energy=-5.334718936145177 pbc="F F F"
Ru       0.00000000       0.00000000       0.00000000       0.00000000       0.00000000       0.90197039
Ru       0.00000000       0.00000000       3.91414141       0.00000000       0.00000000      -0.90197039
2
Properties=species:S:1:pos:R:3:forces:R:3 energy=-5.282472716816827 pbc="F F F"
Ru       0.00000000       0.00000000       0.00000000       0.00000000       0.00000000       0.85013825
Ru       0.00000000       0.00000000       3.97373737       0.00000000       0.00000000      -0.85013825
2
Properties=species:S:1:pos:R:3:forces:R:3 energy=-5.2335526440070455 pbc="F F F"
Ru       0.00000000       0.00000000       0.00000000       0.00000000       0.00000000       0.79015905
Ru       0.00000000       0.00000000       4.03333333       0.00000000       0.00000000      -0.79015905
2
Properties=species:S:1:pos:R:3:forces:R:3 energy=-5.1884528500931895 pbc="F F F"
Ru       0.00000000       0.00000000       0.00000000       0.00000000       0.00000000       0.72214949
Ru       0.00000000       0.00000000       4.09292929       0.00000000       0.00000000      -0.72214949
2
Properties=species:S:1:pos:R:3:forces:R:3 energy=-5.147598634847412 pbc="F F F"
Ru       0.00000000       0.00000000       0.00000000       0.00000000       0.00000000       0.64813530
Ru       0.00000000       0.00000000       4.15252525       0.00000000       0.00000000      -0.64813530
2
Properties=species:S:1:pos:R:3:forces:R:3 energy=-5.1112590585168896 pbc="F F F"
Ru       0.00000000       0.00000000       0.00000000       0.00000000       0.00000000       0.57119620
Ru       0.00000000       0.00000000       4.21212121       0.00000000       0.00000000      -0.57119620
2
Properties=species:S:1:pos:R:3:forces:R:3 energy=-5.079509195660595 pbc="F F F"
Ru       0.00000000       0.00000000       0.00000000       0.00000000       0.00000000       0.49460322
Ru       0.00000000       0.00000000       4.27171717       0.00000000       0.00000000      -0.49460322
2
Properties=species:S:1:pos:R:3:forces:R:3 energy=-5.052240479846958 pbc="F F F"
Ru       0.00000000       0.00000000       0.00000000       0.00000000       0.00000000       0.42128468
Ru       0.00000000       0.00000000       4.33131313       0.00000000       0.00000000      -0.42128468
2
Properties=species:S:1:pos:R:3:forces:R:3 energy=-5.029182988287415 pbc="F F F"
Ru       0.00000000       0.00000000       0.00000000       0.00000000       0.00000000       0.35361844
Ru       0.00000000       0.00000000       4.39090909       0.00000000       0.00000000      -0.35361844
2
Properties=species:S:1:pos:R:3:forces:R:3 energy=-5.009941109588611 pbc="F F F"
Ru       0.00000000       0.00000000       0.00000000       0.00000000       0.00000000       0.29353017
Ru       0.00000000       0.00000000       4.45050505       0.00000000       0.00000000      -0.29353017
2
Properties=species:S:1:pos:R:3:forces:R:3 energy=-4.994012859657043 pbc="F F F"
Ru       0.00000000       0.00000000       0.00000000       0.00000000       0.00000000       0.24268559
Ru       0.00000000       0.00000000       4.51010101       0.00000000       0.00000000      -0.24268559
2
Properties=species:S:1:pos:R:3:forces:R:3 energy=-4.980801180071046 pbc="F F F"
Ru       0.00000000       0.00000000       0.00000000       0.00000000       0.00000000       0.20260115
Ru       0.00000000       0.00000000       4.56969697       0.00000000       0.00000000      -0.20260115
2
Properties=species:S:1:pos:R:3:forces:R:3 energy=-4.969624380980931 pbc="F F F"
Ru       0.00000000       0.00000000       0.00000000       0.00000000       0.00000000       0.17456917
Ru       0.00000000       0.00000000       4.62929293       0.00000000       0.00000000      -0.17456917
2
Properties=species:S:1:pos:R:3:forces:R:3 energy=-4.9597393002213055 pbc="F F F"
Ru       0.00000000       0.00000000       0.00000000       0.00000000       0.00000000       0.15931465
Ru       0.00000000       0.00000000       4.68888889       0.00000000       0.00000000      -0.15931465
2
Properties=species:S:1:pos:R:3:forces:R:3 energy=-4.9503865489881225 pbc="F F F"
Ru       0.00000000       0.00000000       0.00000000       0.00000000       0.00000000       0.15655711
Ru       0.00000000       0.00000000       4.74848485       0.00000000       0.00000000      -0.15655711
2
Properties=species:S:1:pos:R:3:forces:R:3 energy=-4.940862816856511 pbc="F F F"
Ru       0.00000000       0.00000000       0.00000000       0.00000000       0.00000000       0.16465539
Ru       0.00000000       0.00000000       4.80808081       0.00000000       0.00000000      -0.16465539
2
Properties=species:S:1:pos:R:3:forces:R:3 energy=-4.930604378472081 pbc="F F F"
Ru       0.00000000       0.00000000       0.00000000       0.00000000       0.00000000       0.18059552
Ru       0.00000000       0.00000000       4.86767677       0.00000000       0.00000000      -0.18059552
2
Properties=species:S:1:pos:R:3:forces:R:3 energy=-4.919260447277733 pbc="F F F"
Ru       0.00000000       0.00000000       0.00000000       0.00000000       0.00000000       0.20038061
Ru       0.00000000       0.00000000       4.92727273       0.00000000       0.00000000      -0.20038061
2
Properties=species:S:1:pos:R:3:forces:R:3 energy=-4.906729342277772 pbc="F F F"
Ru       0.00000000       0.00000000       0.00000000       0.00000000       0.00000000       0.21973415
Ru       0.00000000       0.00000000       4.98686869       0.00000000       0.00000000      -0.21973415
2
Properties=species:S:1:pos:R:3:forces:R:3 energy=-4.893155726801358 pbc="F F F"
Ru       0.00000000       0.00000000       0.00000000       0.00000000       0.00000000       0.23486964
Ru       0.00000000       0.00000000       5.04646465       0.00000000       0.00000000      -0.23486964
2
Properties=species:S:1:pos:R:3:forces:R:3 energy=-4.878874254602727 pbc="F F F"
Ru       0.00000000       0.00000000       0.00000000       0.00000000       0.00000000       0.24307938
Ru       0.00000000       0.00000000       5.10606061       0.00000000       0.00000000      -0.24307938
2
Properties=species:S:1:pos:R:3:forces:R:3 energy=-4.864345820985723 pbc="F F F"
Ru       0.00000000       0.00000000       0.00000000       0.00000000       0.00000000       0.24299918
Ru       0.00000000       0.00000000       5.16565657       0.00000000       0.00000000      -0.24299918
2
Properties=species:S:1:pos:R:3:forces:R:3 energy=-4.850075526221739 pbc="F F F"
Ru       0.00000000       0.00000000       0.00000000       0.00000000       0.00000000       0.23459819
Ru       0.00000000       0.00000000       5.22525253       0.00000000       0.00000000      -0.23459819
2
Properties=species:S:1:pos:R:3:forces:R:3 energy=-4.83652975340153 pbc="F F F"
Ru       0.00000000       0.00000000       0.00000000       0.00000000       0.00000000       0.21891987
Ru       0.00000000       0.00000000       5.28484848       0.00000000       0.00000000      -0.21891987
2
Properties=species:S:1:pos:R:3:forces:R:3 energy=-4.824091933453267 pbc="F F F"
Ru       0.00000000       0.00000000       0.00000000       0.00000000       0.00000000       0.19772860
Ru       0.00000000       0.00000000       5.34444444       0.00000000       0.00000000      -0.19772860
2
Properties=species:S:1:pos:R:3:forces:R:3 energy=-4.813029646546447 pbc="F F F"
Ru       0.00000000       0.00000000       0.00000000       0.00000000       0.00000000       0.17310151
Ru       0.00000000       0.00000000       5.40404040       0.00000000       0.00000000      -0.17310151
2
Properties=species:S:1:pos:R:3:forces:R:3 energy=-4.803485193054681 pbc="F F F"
Ru       0.00000000       0.00000000       0.00000000       0.00000000       0.00000000       0.14706229
Ru       0.00000000       0.00000000       5.46363636       0.00000000       0.00000000      -0.14706229
2
Properties=species:S:1:pos:R:3:forces:R:3 energy=-4.795496119728255 pbc="F F F"
Ru       0.00000000       0.00000000       0.00000000       0.00000000       0.00000000       0.12135040
Ru       0.00000000       0.00000000       5.52323232       0.00000000       0.00000000      -0.12135040
2
Properties=species:S:1:pos:R:3:forces:R:3 energy=-4.788992450538017 pbc="F F F"
Ru       0.00000000       0.00000000       0.00000000       0.00000000       0.00000000       0.09723619
Ru       0.00000000       0.00000000       5.58282828       0.00000000       0.00000000      -0.09723619
2
Properties=species:S:1:pos:R:3:forces:R:3 energy=-4.783857721831633 pbc="F F F"
Ru       0.00000000       0.00000000       0.00000000       0.00000000       0.00000000       0.07555234
Ru       0.00000000       0.00000000       5.64242424       0.00000000       0.00000000      -0.07555234
2
Properties=species:S:1:pos:R:3:forces:R:3 energy=-4.779928600531089 pbc="F F F"
Ru       0.00000000       0.00000000       0.00000000       0.00000000       0.00000000       0.05673226
Ru       0.00000000       0.00000000       5.70202020       0.00000000       0.00000000      -0.05673226
2
Properties=species:S:1:pos:R:3:forces:R:3 energy=-4.777035921430652 pbc="F F F"
Ru       0.00000000       0.00000000       0.00000000       0.00000000       0.00000000       0.04094730
Ru       0.00000000       0.00000000       5.76161616       0.00000000       0.00000000      -0.04094730
2
Properties=species:S:1:pos:R:3:forces:R:3 energy=-4.774987051349621 pbc="F F F"
Ru       0.00000000       0.00000000       0.00000000       0.00000000       0.00000000       0.02828436
Ru       0.00000000       0.00000000       5.82121212       0.00000000       0.00000000      -0.02828436
2
Properties=species:S:1:pos:R:3:forces:R:3 energy=-4.773601727946915 pbc="F F F"
Ru       0.00000000       0.00000000       0.00000000       0.00000000       0.00000000       0.01883177
Ru       0.00000000       0.00000000       5.88080808       0.00000000       0.00000000      -0.01883177
2
Properties=species:S:1:pos:R:3:forces:R:3 energy=-4.772675812177505 pbc="F F F"
Ru       0.00000000       0.00000000       0.00000000       0.00000000       0.00000000       0.01272130
Ru       0.00000000       0.00000000       5.94040404       0.00000000       0.00000000      -0.01272130
2
Properties=species:S:1:pos:R:3:forces:R:3 energy=-4.772012320721552 pbc="F F F"
Ru       0.00000000       0.00000000       0.00000000       0.00000000       0.00000000       0.01020642
Ru       0.00000000       0.00000000       6.00000000       0.00000000       0.00000000      -0.01020642
