2
Properties=species:S:1:pos:R:3:forces:R:3 energy=1746.891438220383 pbc="F F F"
S        0.00000000       0.00000000       0.00000000       0.00000000       0.00000000  -25520.18359375
S        0.00000000       0.00000000       0.18000000       0.00000000       0.00000000   25520.18359375
2
Properties=species:S:1:pos:R:3:forces:R:3 energy=799.9394728883517 pbc="F F F"
S        0.00000000       0.00000000       0.00000000       0.00000000       0.00000000   -9714.68164062
S        0.00000000       0.00000000       0.23878788       0.00000000       0.00000000    9714.68164062
2
Properties=species:S:1:pos:R:3:forces:R:3 energy=412.60011742276953 pbc="F F F"
S        0.00000000       0.00000000       0.00000000       0.00000000       0.00000000   -4319.45849609
S        0.00000000       0.00000000       0.29757576       0.00000000       0.00000000    4319.45849609
2
Properties=species:S:1:pos:R:3:forces:R:3 energy=232.00667260805426 pbc="F F F"
S        0.00000000       0.00000000       0.00000000       0.00000000       0.00000000   -2122.30712891
S        0.00000000       0.00000000       0.35636364       0.00000000       0.00000000    2122.30712891
2
Properties=species:S:1:pos:R:3:forces:R:3 energy=140.69226527526055 pbc="F F F"
S        0.00000000       0.00000000       0.00000000       0.00000000       0.00000000   -1103.55981445
S        0.00000000       0.00000000       0.41515152       0.00000000       0.00000000    1103.55981445
2
Properties=species:S:1:pos:R:3:forces:R:3 energy=92.88033751469645 pbc="F F F"
S        0.00000000       0.00000000       0.00000000       0.00000000       0.00000000    -575.07293701
S        0.00000000       0.00000000       0.47393939       0.00000000       0.00000000     575.07293701
2
Properties=species:S:1:pos:R:3:forces:R:3 energy=68.92244420963868 pbc="F F F"
S        0.00000000       0.00000000       0.00000000       0.00000000       0.00000000    -263.21414185
S        0.00000000       0.00000000       0.53272727       0.00000000       0.00000000     263.21414185
2
Properties=species:S:1:pos:R:3:forces:R:3 energy=60.05775545038926 pbc="F F F"
S        0.00000000       0.00000000       0.00000000       0.00000000       0.00000000     -49.35826492
S        0.00000000       0.00000000       0.59151515       0.00000000       0.00000000      49.35826492
2
Properties=species:S:1:pos:R:3:forces:R:3 energy=62.08255879891186 pbc="F F F"
S        0.00000000       0.00000000       0.00000000       0.00000000       0.00000000     105.82859802
S        0.00000000       0.00000000       0.65030303       0.00000000       0.00000000    -105.82859802
2
Properties=species:S:1:pos:R:3:forces:R:3 energy=69.31729649292738 pbc="F F F"
S        0.00000000       0.00000000       0.00000000       0.00000000       0.00000000     110.21404266
S        0.00000000       0.00000000       0.70909091       0.00000000       0.00000000    -110.21404266
2
Properties=species:S:1:pos:R:3:forces:R:3 energy=72.88567157971501 pbc="F F F"
S        0.00000000       0.00000000       0.00000000       0.00000000       0.00000000       2.60028768
S        0.00000000       0.00000000       0.76787879       0.00000000       0.00000000      -2.60028768
2
Properties=species:S:1:pos:R:3:forces:R:3 energy=69.42357507698891 pbc="F F F"
S        0.00000000       0.00000000       0.00000000       0.00000000       0.00000000    -115.61878204
S        0.00000000       0.00000000       0.82666667       0.00000000       0.00000000     115.61878204
2
Properties=species:S:1:pos:R:3:forces:R:3 energy=60.534923228989705 pbc="F F F"
S        0.00000000       0.00000000       0.00000000       0.00000000       0.00000000    -172.36965942
S        0.00000000       0.00000000       0.88545455       0.00000000       0.00000000     172.36965942
2
Properties=species:S:1:pos:R:3:forces:R:3 energy=50.23191553260752 pbc="F F F"
S        0.00000000       0.00000000       0.00000000       0.00000000       0.00000000    -180.86709595
S        0.00000000       0.00000000       0.94424242       0.00000000       0.00000000     180.86709595
2
Properties=species:S:1:pos:R:3:forces:R:3 energy=39.644213665110385 pbc="F F F"
S        0.00000000       0.00000000       0.00000000       0.00000000       0.00000000    -171.11190796
S        0.00000000       0.00000000       1.00303030       0.00000000       0.00000000     171.11190796
2
Properties=species:S:1:pos:R:3:forces:R:3 energy=30.22413405006215 pbc="F F F"
S        0.00000000       0.00000000       0.00000000       0.00000000       0.00000000    -151.57801819
S        0.00000000       0.00000000       1.06181818       0.00000000       0.00000000     151.57801819
2
Properties=species:S:1:pos:R:3:forces:R:3 energy=21.832922970701823 pbc="F F F"
S        0.00000000       0.00000000       0.00000000       0.00000000       0.00000000    -130.80072021
S        0.00000000       0.00000000       1.12060606       0.00000000       0.00000000     130.80072021
2
Properties=species:S:1:pos:R:3:forces:R:3 energy=15.181498099441555 pbc="F F F"
S        0.00000000       0.00000000       0.00000000       0.00000000       0.00000000     -94.68835449
S        0.00000000       0.00000000       1.17939394       0.00000000       0.00000000      94.68835449
2
Properties=species:S:1:pos:R:3:forces:R:3 energy=10.51664961245463 pbc="F F F"
S        0.00000000       0.00000000       0.00000000       0.00000000       0.00000000     -67.09476471
S        0.00000000       0.00000000       1.23818182       0.00000000       0.00000000      67.09476471
2
Properties=species:S:1:pos:R:3:forces:R:3 energy=6.947585901839669 pbc="F F F"
S        0.00000000       0.00000000       0.00000000       0.00000000       0.00000000     -56.39012909
S        0.00000000       0.00000000       1.29696970       0.00000000       0.00000000      56.39012909
2
Properties=species:S:1:pos:R:3:forces:R:3 energy=3.7728865162214156 pbc="F F F"
S        0.00000000       0.00000000       0.00000000       0.00000000       0.00000000     -51.68750763
S        0.00000000       0.00000000       1.35575758       0.00000000       0.00000000      51.68750763
2
Properties=species:S:1:pos:R:3:forces:R:3 energy=0.915218990971059 pbc="F F F"
S        0.00000000       0.00000000       0.00000000       0.00000000       0.00000000     -44.97981644
S        0.00000000       0.00000000       1.41454545       0.00000000       0.00000000      44.97981644
2
Properties=species:S:1:pos:R:3:forces:R:3 energy=-1.4668150719341344 pbc="F F F"
S        0.00000000       0.00000000       0.00000000       0.00000000       0.00000000     -35.88235474
S        0.00000000       0.00000000       1.47333333       0.00000000       0.00000000      35.88235474
2
Properties=species:S:1:pos:R:3:forces:R:3 energy=-3.3105159669197817 pbc="F F F"
S        0.00000000       0.00000000       0.00000000       0.00000000       0.00000000     -27.06025696
S        0.00000000       0.00000000       1.53212121       0.00000000       0.00000000      27.06025696
2
Properties=species:S:1:pos:R:3:forces:R:3 energy=-4.679324023693387 pbc="F F F"
S        0.00000000       0.00000000       0.00000000       0.00000000       0.00000000     -19.76418114
S        0.00000000       0.00000000       1.59090909       0.00000000       0.00000000      19.76418114
2
Properties=species:S:1:pos:R:3:forces:R:3 energy=-5.661030503056196 pbc="F F F"
S        0.00000000       0.00000000       0.00000000       0.00000000       0.00000000     -13.83574200
S        0.00000000       0.00000000       1.64969697       0.00000000       0.00000000      13.83574200
2
Properties=species:S:1:pos:R:3:forces:R:3 energy=-6.328180440071737 pbc="F F F"
S        0.00000000       0.00000000       0.00000000       0.00000000       0.00000000      -9.04168415
S        0.00000000       0.00000000       1.70848485       0.00000000       0.00000000       9.04168415
2
Properties=species:S:1:pos:R:3:forces:R:3 energy=-6.74475216313882 pbc="F F F"
S        0.00000000       0.00000000       0.00000000       0.00000000       0.00000000      -5.29864073
S        0.00000000       0.00000000       1.76727273       0.00000000       0.00000000       5.29864073
2
Properties=species:S:1:pos:R:3:forces:R:3 energy=-6.969445311944637 pbc="F F F"
S        0.00000000       0.00000000       0.00000000       0.00000000       0.00000000      -2.48465490
S        0.00000000       0.00000000       1.82606061       0.00000000       0.00000000       2.48465490
2
Properties=species:S:1:pos:R:3:forces:R:3 energy=-7.051017872237271 pbc="F F F"
S        0.00000000       0.00000000       0.00000000       0.00000000       0.00000000      -0.39194396
S        0.00000000       0.00000000       1.88484848       0.00000000       0.00000000       0.39194396
2
Properties=species:S:1:pos:R:3:forces:R:3 energy=-7.0255410148024575 pbc="F F F"
S        0.00000000       0.00000000       0.00000000       0.00000000       0.00000000       1.18763614
S        0.00000000       0.00000000       1.94363636       0.00000000       0.00000000      -1.18763614
2
Properties=species:S:1:pos:R:3:forces:R:3 energy=-6.918476210795999 pbc="F F F"
S        0.00000000       0.00000000       0.00000000       0.00000000       0.00000000       2.40280271
S        0.00000000       0.00000000       2.00242424       0.00000000       0.00000000      -2.40280271
2
Properties=species:S:1:pos:R:3:forces:R:3 energy=-6.748523291771362 pbc="F F F"
S        0.00000000       0.00000000       0.00000000       0.00000000       0.00000000       3.33579659
S        0.00000000       0.00000000       2.06121212       0.00000000       0.00000000      -3.33579659
2
Properties=species:S:1:pos:R:3:forces:R:3 energy=-6.531209723346707 pbc="F F F"
S        0.00000000       0.00000000       0.00000000       0.00000000       0.00000000       4.01607275
S        0.00000000       0.00000000       2.12000000       0.00000000       0.00000000      -4.01607275
2
Properties=species:S:1:pos:R:3:forces:R:3 energy=-6.281046211766905 pbc="F F F"
S        0.00000000       0.00000000       0.00000000       0.00000000       0.00000000       4.45664787
S        0.00000000       0.00000000       2.17878788       0.00000000       0.00000000      -4.45664787
2
Properties=species:S:1:pos:R:3:forces:R:3 energy=-6.011182709411497 pbc="F F F"
S        0.00000000       0.00000000       0.00000000       0.00000000       0.00000000       4.69610453
S        0.00000000       0.00000000       2.23757576       0.00000000       0.00000000      -4.69610453
2
Properties=species:S:1:pos:R:3:forces:R:3 energy=-5.731413052524233 pbc="F F F"
S        0.00000000       0.00000000       0.00000000       0.00000000       0.00000000       4.80724812
S        0.00000000       0.00000000       2.29636364       0.00000000       0.00000000      -4.80724812
2
Properties=species:S:1:pos:R:3:forces:R:3 energy=-5.446998497741824 pbc="F F F"
S        0.00000000       0.00000000       0.00000000       0.00000000       0.00000000       4.86472273
S        0.00000000       0.00000000       2.35515152       0.00000000       0.00000000      -4.86472273
2
Properties=species:S:1:pos:R:3:forces:R:3 energy=-5.159618795148816 pbc="F F F"
S        0.00000000       0.00000000       0.00000000       0.00000000       0.00000000       4.91159630
S        0.00000000       0.00000000       2.41393939       0.00000000       0.00000000      -4.91159630
2
Properties=species:S:1:pos:R:3:forces:R:3 energy=-4.869637174122667 pbc="F F F"
S        0.00000000       0.00000000       0.00000000       0.00000000       0.00000000       4.95110893
S        0.00000000       0.00000000       2.47272727       0.00000000       0.00000000      -4.95110893
2
Properties=species:S:1:pos:R:3:forces:R:3 energy=-4.578148216056538 pbc="F F F"
S        0.00000000       0.00000000       0.00000000       0.00000000       0.00000000       4.95654058
S        0.00000000       0.00000000       2.53151515       0.00000000       0.00000000      -4.95654058
2
Properties=species:S:1:pos:R:3:forces:R:3 energy=-4.288327379384885 pbc="F F F"
S        0.00000000       0.00000000       0.00000000       0.00000000       0.00000000       4.88768005
S        0.00000000       0.00000000       2.59030303       0.00000000       0.00000000      -4.88768005
2
Properties=species:S:1:pos:R:3:forces:R:3 energy=-4.005600746411552 pbc="F F F"
S        0.00000000       0.00000000       0.00000000       0.00000000       0.00000000       4.71120787
S        0.00000000       0.00000000       2.64909091       0.00000000       0.00000000      -4.71120787
2
Properties=species:S:1:pos:R:3:forces:R:3 energy=-3.7366841388049683 pbc="F F F"
S        0.00000000       0.00000000       0.00000000       0.00000000       0.00000000       4.41944122
S        0.00000000       0.00000000       2.70787879       0.00000000       0.00000000      -4.41944122
2
Properties=species:S:1:pos:R:3:forces:R:3 energy=-3.4878024158509118 pbc="F F F"
S        0.00000000       0.00000000       0.00000000       0.00000000       0.00000000       4.03544760
S        0.00000000       0.00000000       2.76666667       0.00000000       0.00000000      -4.03544760
2
Properties=species:S:1:pos:R:3:forces:R:3 energy=-3.2631974881699386 pbc="F F F"
S        0.00000000       0.00000000       0.00000000       0.00000000       0.00000000       3.60115910
S        0.00000000       0.00000000       2.82545455       0.00000000       0.00000000      -3.60115910
2
Properties=species:S:1:pos:R:3:forces:R:3 energy=-3.064541537919481 pbc="F F F"
S        0.00000000       0.00000000       0.00000000       0.00000000       0.00000000       3.15890527
S        0.00000000       0.00000000       2.88424242       0.00000000       0.00000000      -3.15890527
2
Properties=species:S:1:pos:R:3:forces:R:3 energy=-2.8913474343138668 pbc="F F F"
S        0.00000000       0.00000000       0.00000000       0.00000000       0.00000000       2.73853374
S        0.00000000       0.00000000       2.94303030       0.00000000       0.00000000      -2.73853374
2
Properties=species:S:1:pos:R:3:forces:R:3 energy=-2.741835217166769 pbc="F F F"
S        0.00000000       0.00000000       0.00000000       0.00000000       0.00000000       2.35456824
S        0.00000000       0.00000000       3.00181818       0.00000000       0.00000000      -2.35456824
2
Properties=species:S:1:pos:R:3:forces:R:3 energy=-2.613721332879374 pbc="F F F"
S        0.00000000       0.00000000       0.00000000       0.00000000       0.00000000       2.01056290
S        0.00000000       0.00000000       3.06060606       0.00000000       0.00000000      -2.01056290
2
Properties=species:S:1:pos:R:3:forces:R:3 energy=-2.5046894714564005 pbc="F F F"
S        0.00000000       0.00000000       0.00000000       0.00000000       0.00000000       1.70493865
S        0.00000000       0.00000000       3.11939394       0.00000000       0.00000000      -1.70493865
2
Properties=species:S:1:pos:R:3:forces:R:3 energy=-2.4125646712656996 pbc="F F F"
S        0.00000000       0.00000000       0.00000000       0.00000000       0.00000000       1.43489540
S        0.00000000       0.00000000       3.17818182       0.00000000       0.00000000      -1.43489540
2
Properties=species:S:1:pos:R:3:forces:R:3 energy=-2.335330399484901 pbc="F F F"
S        0.00000000       0.00000000       0.00000000       0.00000000       0.00000000       1.19804311
S        0.00000000       0.00000000       3.23696970       0.00000000       0.00000000      -1.19804311
2
Properties=species:S:1:pos:R:3:forces:R:3 energy=-2.271086077084454 pbc="F F F"
S        0.00000000       0.00000000       0.00000000       0.00000000       0.00000000       0.99274546
S        0.00000000       0.00000000       3.29575758       0.00000000       0.00000000      -0.99274546
2
Properties=species:S:1:pos:R:3:forces:R:3 energy=-2.218010936574171 pbc="F F F"
S        0.00000000       0.00000000       0.00000000       0.00000000       0.00000000       0.81788486
S        0.00000000       0.00000000       3.35454545       0.00000000       0.00000000      -0.81788486
2
Properties=species:S:1:pos:R:3:forces:R:3 energy=-2.1743449960342356 pbc="F F F"
S        0.00000000       0.00000000       0.00000000       0.00000000       0.00000000       0.67246348
S        0.00000000       0.00000000       3.41333333       0.00000000       0.00000000      -0.67246348
2
Properties=species:S:1:pos:R:3:forces:R:3 energy=-2.1383946662875797 pbc="F F F"
S        0.00000000       0.00000000       0.00000000       0.00000000       0.00000000       0.55512214
S        0.00000000       0.00000000       3.47212121       0.00000000       0.00000000      -0.55512214
2
Properties=species:S:1:pos:R:3:forces:R:3 energy=-2.1085667798163463 pbc="F F F"
S        0.00000000       0.00000000       0.00000000       0.00000000       0.00000000       0.46376431
S        0.00000000       0.00000000       3.53090909       0.00000000       0.00000000      -0.46376431
2
Properties=species:S:1:pos:R:3:forces:R:3 energy=-2.0834169406322007 pbc="F F F"
S        0.00000000       0.00000000       0.00000000       0.00000000       0.00000000       0.39536715
S        0.00000000       0.00000000       3.58969697       0.00000000       0.00000000      -0.39536715
2
Properties=species:S:1:pos:R:3:forces:R:3 energy=-2.061705942364471 pbc="F F F"
S        0.00000000       0.00000000       0.00000000       0.00000000       0.00000000       0.34607252
S        0.00000000       0.00000000       3.64848485       0.00000000       0.00000000      -0.34607252
2
Properties=species:S:1:pos:R:3:forces:R:3 energy=-2.042438772288542 pbc="F F F"
S        0.00000000       0.00000000       0.00000000       0.00000000       0.00000000       0.31149098
S        0.00000000       0.00000000       3.70727273       0.00000000       0.00000000      -0.31149098
2
Properties=species:S:1:pos:R:3:forces:R:3 energy=-2.024881897088802 pbc="F F F"
S        0.00000000       0.00000000       0.00000000       0.00000000       0.00000000       0.28714624
S        0.00000000       0.00000000       3.76606061       0.00000000       0.00000000      -0.28714624
2
Properties=species:S:1:pos:R:3:forces:R:3 energy=-2.0085576097528373 pbc="F F F"
S        0.00000000       0.00000000       0.00000000       0.00000000       0.00000000       0.26895034
S        0.00000000       0.00000000       3.82484848       0.00000000       0.00000000      -0.26895034
2
Properties=species:S:1:pos:R:3:forces:R:3 energy=-1.9932050311266862 pbc="F F F"
S        0.00000000       0.00000000       0.00000000       0.00000000       0.00000000       0.25358972
S        0.00000000       0.00000000       3.88363636       0.00000000       0.00000000      -0.25358972
2
Properties=species:S:1:pos:R:3:forces:R:3 energy=-1.9787311802531469 pbc="F F F"
S        0.00000000       0.00000000       0.00000000       0.00000000       0.00000000       0.23878403
S        0.00000000       0.00000000       3.94242424       0.00000000       0.00000000      -0.23878403
2
Properties=species:S:1:pos:R:3:forces:R:3 energy=-1.9651424631243364 pbc="F F F"
S        0.00000000       0.00000000       0.00000000       0.00000000       0.00000000       0.22337654
S        0.00000000       0.00000000       4.00121212       0.00000000       0.00000000      -0.22337654
2
Properties=species:S:1:pos:R:3:forces:R:3 energy=-1.9524822866254783 pbc="F F F"
S        0.00000000       0.00000000       0.00000000       0.00000000       0.00000000       0.20724897
S        0.00000000       0.00000000       4.06000000       0.00000000       0.00000000      -0.20724897
2
Properties=species:S:1:pos:R:3:forces:R:3 energy=-1.940776267027179 pbc="F F F"
S        0.00000000       0.00000000       0.00000000       0.00000000       0.00000000       0.19108027
S        0.00000000       0.00000000       4.11878788       0.00000000       0.00000000      -0.19108027
2
Properties=species:S:1:pos:R:3:forces:R:3 energy=-1.929995103627312 pbc="F F F"
S        0.00000000       0.00000000       0.00000000       0.00000000       0.00000000       0.17596550
S        0.00000000       0.00000000       4.17757576       0.00000000       0.00000000      -0.17596550
2
Properties=species:S:1:pos:R:3:forces:R:3 energy=-1.9200449022077193 pbc="F F F"
S        0.00000000       0.00000000       0.00000000       0.00000000       0.00000000       0.16297396
S        0.00000000       0.00000000       4.23636364       0.00000000       0.00000000      -0.16297396
2
Properties=species:S:1:pos:R:3:forces:R:3 energy=-1.9107783680361417 pbc="F F F"
S        0.00000000       0.00000000       0.00000000       0.00000000       0.00000000       0.15276198
S        0.00000000       0.00000000       4.29515152       0.00000000       0.00000000      -0.15276198
2
Properties=species:S:1:pos:R:3:forces:R:3 energy=-1.9020285100009808 pbc="F F F"
S        0.00000000       0.00000000       0.00000000       0.00000000       0.00000000       0.14535658
S        0.00000000       0.00000000       4.35393939       0.00000000       0.00000000      -0.14535658
2
Properties=species:S:1:pos:R:3:forces:R:3 energy=-1.8936440857840315 pbc="F F F"
S        0.00000000       0.00000000       0.00000000       0.00000000       0.00000000       0.14018941
S        0.00000000       0.00000000       4.41272727       0.00000000       0.00000000      -0.14018941
2
Properties=species:S:1:pos:R:3:forces:R:3 energy=-1.8855194124784216 pbc="F F F"
S        0.00000000       0.00000000       0.00000000       0.00000000       0.00000000       0.13635421
S        0.00000000       0.00000000       4.47151515       0.00000000       0.00000000      -0.13635421
2
Properties=species:S:1:pos:R:3:forces:R:3 energy=-1.8776035955971053 pbc="F F F"
S        0.00000000       0.00000000       0.00000000       0.00000000       0.00000000       0.13295320
S        0.00000000       0.00000000       4.53030303       0.00000000       0.00000000      -0.13295320
2
Properties=species:S:1:pos:R:3:forces:R:3 energy=-1.869891593127882 pbc="F F F"
S        0.00000000       0.00000000       0.00000000       0.00000000       0.00000000       0.12935878
S        0.00000000       0.00000000       4.58909091       0.00000000       0.00000000      -0.12935878
2
Properties=species:S:1:pos:R:3:forces:R:3 energy=-1.8624034457745646 pbc="F F F"
S        0.00000000       0.00000000       0.00000000       0.00000000       0.00000000       0.12530653
S        0.00000000       0.00000000       4.64787879       0.00000000       0.00000000      -0.12530653
2
Properties=species:S:1:pos:R:3:forces:R:3 energy=-1.8551672846735083 pbc="F F F"
S        0.00000000       0.00000000       0.00000000       0.00000000       0.00000000       0.12079950
S        0.00000000       0.00000000       4.70666667       0.00000000       0.00000000      -0.12079950
2
Properties=species:S:1:pos:R:3:forces:R:3 energy=-1.8482069732252726 pbc="F F F"
S        0.00000000       0.00000000       0.00000000       0.00000000       0.00000000       0.11595818
S        0.00000000       0.00000000       4.76545455       0.00000000       0.00000000      -0.11595818
2
Properties=species:S:1:pos:R:3:forces:R:3 energy=-1.8415378654533967 pbc="F F F"
S        0.00000000       0.00000000       0.00000000       0.00000000       0.00000000       0.11088440
S        0.00000000       0.00000000       4.82424242       0.00000000       0.00000000      -0.11088440
2
Properties=species:S:1:pos:R:3:forces:R:3 energy=-1.835173889245682 pbc="F F F"
S        0.00000000       0.00000000       0.00000000       0.00000000       0.00000000       0.10560635
S        0.00000000       0.00000000       4.88303030       0.00000000       0.00000000      -0.10560635
2
Properties=species:S:1:pos:R:3:forces:R:3 energy=-1.829125899598893 pbc="F F F"
S        0.00000000       0.00000000       0.00000000       0.00000000       0.00000000       0.10008920
S        0.00000000       0.00000000       4.94181818       0.00000000       0.00000000      -0.10008920
2
Properties=species:S:1:pos:R:3:forces:R:3 energy=-1.8234111302067209 pbc="F F F"
S        0.00000000       0.00000000       0.00000000       0.00000000       0.00000000       0.09426638
S        0.00000000       0.00000000       5.00060606       0.00000000       0.00000000      -0.09426638
2
Properties=species:S:1:pos:R:3:forces:R:3 energy=-1.8180495494489162 pbc="F F F"
S        0.00000000       0.00000000       0.00000000       0.00000000       0.00000000       0.08806829
S        0.00000000       0.00000000       5.05939394       0.00000000       0.00000000      -0.08806829
2
Properties=species:S:1:pos:R:3:forces:R:3 energy=-1.8130649174357842 pbc="F F F"
S        0.00000000       0.00000000       0.00000000       0.00000000       0.00000000       0.08143527
S        0.00000000       0.00000000       5.11818182       0.00000000       0.00000000      -0.08143527
2
Properties=species:S:1:pos:R:3:forces:R:3 energy=-1.808484112726092 pbc="F F F"
S        0.00000000       0.00000000       0.00000000       0.00000000       0.00000000       0.07433953
S        0.00000000       0.00000000       5.17696970       0.00000000       0.00000000      -0.07433953
2
Properties=species:S:1:pos:R:3:forces:R:3 energy=-1.804333680009404 pbc="F F F"
S        0.00000000       0.00000000       0.00000000       0.00000000       0.00000000       0.06680102
S        0.00000000       0.00000000       5.23575758       0.00000000       0.00000000      -0.06680102
2
Properties=species:S:1:pos:R:3:forces:R:3 energy=-1.8006371072993552 pbc="F F F"
S        0.00000000       0.00000000       0.00000000       0.00000000       0.00000000       0.05891344
S        0.00000000       0.00000000       5.29454545       0.00000000       0.00000000      -0.05891344
2
Properties=species:S:1:pos:R:3:forces:R:3 energy=-1.7974100607298913 pbc="F F F"
S        0.00000000       0.00000000       0.00000000       0.00000000       0.00000000       0.05085716
S        0.00000000       0.00000000       5.35333333       0.00000000       0.00000000      -0.05085716
2
Properties=species:S:1:pos:R:3:forces:R:3 energy=-1.7946554961824417 pbc="F F F"
S        0.00000000       0.00000000       0.00000000       0.00000000       0.00000000       0.04288588
S        0.00000000       0.00000000       5.41212121       0.00000000       0.00000000      -0.04288588
2
Properties=species:S:1:pos:R:3:forces:R:3 energy=-1.792360340828723 pbc="F F F"
S        0.00000000       0.00000000       0.00000000       0.00000000       0.00000000       0.03528714
S        0.00000000       0.00000000       5.47090909       0.00000000       0.00000000      -0.03528714
2
Properties=species:S:1:pos:R:3:forces:R:3 energy=-1.7904941671773758 pbc="F F F"
S        0.00000000       0.00000000       0.00000000       0.00000000       0.00000000       0.02832172
S        0.00000000       0.00000000       5.52969697       0.00000000       0.00000000      -0.02832172
2
Properties=species:S:1:pos:R:3:forces:R:3 energy=-1.789014327586938 pbc="F F F"
S        0.00000000       0.00000000       0.00000000       0.00000000       0.00000000       0.02217028
S        0.00000000       0.00000000       5.58848485       0.00000000       0.00000000      -0.02217028
2
Properties=species:S:1:pos:R:3:forces:R:3 energy=-1.7878697786645654 pbc="F F F"
S        0.00000000       0.00000000       0.00000000       0.00000000       0.00000000       0.01691958
S        0.00000000       0.00000000       5.64727273       0.00000000       0.00000000      -0.01691958
2
Properties=species:S:1:pos:R:3:forces:R:3 energy=-1.7870078563966485 pbc="F F F"
S        0.00000000       0.00000000       0.00000000       0.00000000       0.00000000       0.01255720
S        0.00000000       0.00000000       5.70606061       0.00000000       0.00000000      -0.01255720
2
Properties=species:S:1:pos:R:3:forces:R:3 energy=-1.7863767888493691 pbc="F F F"
S        0.00000000       0.00000000       0.00000000       0.00000000       0.00000000       0.00900971
S        0.00000000       0.00000000       5.76484848       0.00000000       0.00000000      -0.00900971
2
Properties=species:S:1:pos:R:3:forces:R:3 energy=-1.7859335683375677 pbc="F F F"
S        0.00000000       0.00000000       0.00000000       0.00000000       0.00000000       0.00620181
S        0.00000000       0.00000000       5.82363636       0.00000000       0.00000000      -0.00620181
2
Properties=species:S:1:pos:R:3:forces:R:3 energy=-1.7856347556783805 pbc="F F F"
S        0.00000000       0.00000000       0.00000000       0.00000000       0.00000000       0.00409161
S        0.00000000       0.00000000       5.88242424       0.00000000       0.00000000      -0.00409161
2
Properties=species:S:1:pos:R:3:forces:R:3 energy=-1.7854385134807849 pbc="F F F"
S        0.00000000       0.00000000       0.00000000       0.00000000       0.00000000       0.00269880
S        0.00000000       0.00000000       5.94121212       0.00000000       0.00000000      -0.00269880
2
Properties=species:S:1:pos:R:3:forces:R:3 energy=-1.785301504328204 pbc="F F F"
S        0.00000000       0.00000000       0.00000000       0.00000000       0.00000000       0.00211222
S        0.00000000       0.00000000       6.00000000       0.00000000       0.00000000      -0.00211222
