2
Properties=species:S:1:pos:R:3:forces:R:3 energy=2601.27293524202 pbc="F F F"
Sc       0.00000000       0.00000000       0.00000000       0.00000000       0.00000000  -39489.22265625
Sc       0.00000000       0.00000000       0.18000000       0.00000000       0.00000000   39489.22265625
2
Properties=species:S:1:pos:R:3:forces:R:3 energy=1150.8931744998326 pbc="F F F"
Sc       0.00000000       0.00000000       0.00000000       0.00000000       0.00000000  -14688.70605469
Sc       0.00000000       0.00000000       0.23878788       0.00000000       0.00000000   14688.70605469
2
Properties=species:S:1:pos:R:3:forces:R:3 energy=570.0203107366372 pbc="F F F"
Sc       0.00000000       0.00000000       0.00000000       0.00000000       0.00000000   -6412.79785156
Sc       0.00000000       0.00000000       0.29757576       0.00000000       0.00000000    6412.79785156
2
Properties=species:S:1:pos:R:3:forces:R:3 energy=303.632584906559 pbc="F F F"
Sc       0.00000000       0.00000000       0.00000000       0.00000000       0.00000000   -3109.17993164
Sc       0.00000000       0.00000000       0.35636364       0.00000000       0.00000000    3109.17993164
2
Properties=species:S:1:pos:R:3:forces:R:3 energy=170.04753241949243 pbc="F F F"
Sc       0.00000000       0.00000000       0.00000000       0.00000000       0.00000000   -1618.86523438
Sc       0.00000000       0.00000000       0.41515152       0.00000000       0.00000000    1618.86523438
2
Properties=species:S:1:pos:R:3:forces:R:3 energy=98.78977333475761 pbc="F F F"
Sc       0.00000000       0.00000000       0.00000000       0.00000000       0.00000000    -887.17388916
Sc       0.00000000       0.00000000       0.47393939       0.00000000       0.00000000     887.17388916
2
Properties=species:S:1:pos:R:3:forces:R:3 energy=59.00841272754384 pbc="F F F"
Sc       0.00000000       0.00000000       0.00000000       0.00000000       0.00000000    -505.73361206
Sc       0.00000000       0.00000000       0.53272727       0.00000000       0.00000000     505.73361206
2
Properties=species:S:1:pos:R:3:forces:R:3 energy=35.981099523632366 pbc="F F F"
Sc       0.00000000       0.00000000       0.00000000       0.00000000       0.00000000    -297.92242432
Sc       0.00000000       0.00000000       0.59151515       0.00000000       0.00000000     297.92242432
2
Properties=species:S:1:pos:R:3:forces:R:3 energy=22.225625480573527 pbc="F F F"
Sc       0.00000000       0.00000000       0.00000000       0.00000000       0.00000000    -180.92233276
Sc       0.00000000       0.00000000       0.65030303       0.00000000       0.00000000     180.92233276
2
Properties=species:S:1:pos:R:3:forces:R:3 energy=13.748112249643446 pbc="F F F"
Sc       0.00000000       0.00000000       0.00000000       0.00000000       0.00000000    -113.57552338
Sc       0.00000000       0.00000000       0.70909091       0.00000000       0.00000000     113.57552338
2
Properties=species:S:1:pos:R:3:forces:R:3 energy=8.324115444666683 pbc="F F F"
Sc       0.00000000       0.00000000       0.00000000       0.00000000       0.00000000     -74.48464966
Sc       0.00000000       0.00000000       0.76787879       0.00000000       0.00000000      74.48464966
2
Properties=species:S:1:pos:R:3:forces:R:3 energy=4.669848310968533 pbc="F F F"
Sc       0.00000000       0.00000000       0.00000000       0.00000000       0.00000000     -51.89857483
Sc       0.00000000       0.00000000       0.82666667       0.00000000       0.00000000      51.89857483
2
Properties=species:S:1:pos:R:3:forces:R:3 energy=2.0413552585411305 pbc="F F F"
Sc       0.00000000       0.00000000       0.00000000       0.00000000       0.00000000     -38.59742737
Sc       0.00000000       0.00000000       0.88545455       0.00000000       0.00000000      38.59742737
2
Properties=species:S:1:pos:R:3:forces:R:3 energy=0.05155325597036531 pbc="F F F"
Sc       0.00000000       0.00000000       0.00000000       0.00000000       0.00000000     -29.44523621
Sc       0.00000000       0.00000000       0.94424242       0.00000000       0.00000000      29.44523621
2
Properties=species:S:1:pos:R:3:forces:R:3 energy=-1.437499743962734 pbc="F F F"
Sc       0.00000000       0.00000000       0.00000000       0.00000000       0.00000000     -21.26713181
Sc       0.00000000       0.00000000       1.00303030       0.00000000       0.00000000      21.26713181
2
Properties=species:S:1:pos:R:3:forces:R:3 energy=-2.4666798438720603 pbc="F F F"
Sc       0.00000000       0.00000000       0.00000000       0.00000000       0.00000000     -14.08783531
Sc       0.00000000       0.00000000       1.06181818       0.00000000       0.00000000      14.08783531
2
Properties=species:S:1:pos:R:3:forces:R:3 energy=-3.1578072171542706 pbc="F F F"
Sc       0.00000000       0.00000000       0.00000000       0.00000000       0.00000000     -10.07782555
Sc       0.00000000       0.00000000       1.12060606       0.00000000       0.00000000      10.07782555
2
Properties=species:S:1:pos:R:3:forces:R:3 energy=-3.7163118376113204 pbc="F F F"
Sc       0.00000000       0.00000000       0.00000000       0.00000000       0.00000000      -9.26291275
Sc       0.00000000       0.00000000       1.17939394       0.00000000       0.00000000       9.26291275
2
Properties=species:S:1:pos:R:3:forces:R:3 energy=-4.2625332675854235 pbc="F F F"
Sc       0.00000000       0.00000000       0.00000000       0.00000000       0.00000000      -9.34080982
Sc       0.00000000       0.00000000       1.23818182       0.00000000       0.00000000       9.34080982
2
Properties=species:S:1:pos:R:3:forces:R:3 energy=-4.817510208060153 pbc="F F F"
Sc       0.00000000       0.00000000       0.00000000       0.00000000       0.00000000      -9.56837654
Sc       0.00000000       0.00000000       1.29696970       0.00000000       0.00000000       9.56837654
2
Properties=species:S:1:pos:R:3:forces:R:3 energy=-5.383771469869373 pbc="F F F"
Sc       0.00000000       0.00000000       0.00000000       0.00000000       0.00000000      -9.57840729
Sc       0.00000000       0.00000000       1.35575758       0.00000000       0.00000000       9.57840729
2
Properties=species:S:1:pos:R:3:forces:R:3 energy=-5.922072770349857 pbc="F F F"
Sc       0.00000000       0.00000000       0.00000000       0.00000000       0.00000000      -8.51435280
Sc       0.00000000       0.00000000       1.41454545       0.00000000       0.00000000       8.51435280
2
Properties=species:S:1:pos:R:3:forces:R:3 energy=-6.358283930835788 pbc="F F F"
Sc       0.00000000       0.00000000       0.00000000       0.00000000       0.00000000      -6.10706520
Sc       0.00000000       0.00000000       1.47333333       0.00000000       0.00000000       6.10706520
2
Properties=species:S:1:pos:R:3:forces:R:3 energy=-6.617967680028001 pbc="F F F"
Sc       0.00000000       0.00000000       0.00000000       0.00000000       0.00000000      -2.59223986
Sc       0.00000000       0.00000000       1.53212121       0.00000000       0.00000000       2.59223986
2
Properties=species:S:1:pos:R:3:forces:R:3 energy=-6.657801280524891 pbc="F F F"
Sc       0.00000000       0.00000000       0.00000000       0.00000000       0.00000000       1.17272675
Sc       0.00000000       0.00000000       1.59090909       0.00000000       0.00000000      -1.17272675
2
Properties=species:S:1:pos:R:3:forces:R:3 energy=-6.501222534933398 pbc="F F F"
Sc       0.00000000       0.00000000       0.00000000       0.00000000       0.00000000       3.87269783
Sc       0.00000000       0.00000000       1.64969697       0.00000000       0.00000000      -3.87269783
2
Properties=species:S:1:pos:R:3:forces:R:3 energy=-6.241377071994352 pbc="F F F"
Sc       0.00000000       0.00000000       0.00000000       0.00000000       0.00000000       4.64005566
Sc       0.00000000       0.00000000       1.70848485       0.00000000       0.00000000      -4.64005566
2
Properties=species:S:1:pos:R:3:forces:R:3 energy=-5.984753399984174 pbc="F F F"
Sc       0.00000000       0.00000000       0.00000000       0.00000000       0.00000000       3.94985604
Sc       0.00000000       0.00000000       1.76727273       0.00000000       0.00000000      -3.94985604
2
Properties=species:S:1:pos:R:3:forces:R:3 energy=-5.7824528993622515 pbc="F F F"
Sc       0.00000000       0.00000000       0.00000000       0.00000000       0.00000000       2.94864392
Sc       0.00000000       0.00000000       1.82606061       0.00000000       0.00000000      -2.94864392
2
Properties=species:S:1:pos:R:3:forces:R:3 energy=-5.633949892839627 pbc="F F F"
Sc       0.00000000       0.00000000       0.00000000       0.00000000       0.00000000       2.13971686
Sc       0.00000000       0.00000000       1.88484848       0.00000000       0.00000000      -2.13971686
2
Properties=species:S:1:pos:R:3:forces:R:3 energy=-5.527597862574221 pbc="F F F"
Sc       0.00000000       0.00000000       0.00000000       0.00000000       0.00000000       1.49826658
Sc       0.00000000       0.00000000       1.94363636       0.00000000       0.00000000      -1.49826658
2
Properties=species:S:1:pos:R:3:forces:R:3 energy=-5.456041370485376 pbc="F F F"
Sc       0.00000000       0.00000000       0.00000000       0.00000000       0.00000000       0.94827873
Sc       0.00000000       0.00000000       2.00242424       0.00000000       0.00000000      -0.94827873
2
Properties=species:S:1:pos:R:3:forces:R:3 energy=-5.414730853058056 pbc="F F F"
Sc       0.00000000       0.00000000       0.00000000       0.00000000       0.00000000       0.46906981
Sc       0.00000000       0.00000000       2.06121212       0.00000000       0.00000000      -0.46906981
2
Properties=species:S:1:pos:R:3:forces:R:3 energy=-5.39938176520304 pbc="F F F"
Sc       0.00000000       0.00000000       0.00000000       0.00000000       0.00000000       0.06701627
Sc       0.00000000       0.00000000       2.12000000       0.00000000       0.00000000      -0.06701627
2
Properties=species:S:1:pos:R:3:forces:R:3 energy=-5.405053829879188 pbc="F F F"
Sc       0.00000000       0.00000000       0.00000000       0.00000000       0.00000000      -0.24321608
Sc       0.00000000       0.00000000       2.17878788       0.00000000       0.00000000       0.24321608
2
Properties=species:S:1:pos:R:3:forces:R:3 energy=-5.4258421980065545 pbc="F F F"
Sc       0.00000000       0.00000000       0.00000000       0.00000000       0.00000000      -0.44470319
Sc       0.00000000       0.00000000       2.23757576       0.00000000       0.00000000       0.44470319
2
Properties=species:S:1:pos:R:3:forces:R:3 energy=-5.455018031400841 pbc="F F F"
Sc       0.00000000       0.00000000       0.00000000       0.00000000       0.00000000      -0.52841014
Sc       0.00000000       0.00000000       2.29636364       0.00000000       0.00000000       0.52841014
2
Properties=species:S:1:pos:R:3:forces:R:3 energy=-5.48585926698474 pbc="F F F"
Sc       0.00000000       0.00000000       0.00000000       0.00000000       0.00000000      -0.50519562
Sc       0.00000000       0.00000000       2.35515152       0.00000000       0.00000000       0.50519562
2
Properties=species:S:1:pos:R:3:forces:R:3 energy=-5.51295549018305 pbc="F F F"
Sc       0.00000000       0.00000000       0.00000000       0.00000000       0.00000000      -0.40776384
Sc       0.00000000       0.00000000       2.41393939       0.00000000       0.00000000       0.40776384
2
Properties=species:S:1:pos:R:3:forces:R:3 energy=-5.5331892496354556 pbc="F F F"
Sc       0.00000000       0.00000000       0.00000000       0.00000000       0.00000000      -0.27881011
Sc       0.00000000       0.00000000       2.47272727       0.00000000       0.00000000       0.27881011
2
Properties=species:S:1:pos:R:3:forces:R:3 energy=-5.545849436254665 pbc="F F F"
Sc       0.00000000       0.00000000       0.00000000       0.00000000       0.00000000      -0.15511936
Sc       0.00000000       0.00000000       2.53151515       0.00000000       0.00000000       0.15511936
2
Properties=species:S:1:pos:R:3:forces:R:3 energy=-5.551973657621595 pbc="F F F"
Sc       0.00000000       0.00000000       0.00000000       0.00000000       0.00000000      -0.05881314
Sc       0.00000000       0.00000000       2.59030303       0.00000000       0.00000000       0.05881314
2
Properties=species:S:1:pos:R:3:forces:R:3 energy=-5.553465700145453 pbc="F F F"
Sc       0.00000000       0.00000000       0.00000000       0.00000000       0.00000000       0.00205192
Sc       0.00000000       0.00000000       2.64909091       0.00000000       0.00000000      -0.00205192
2
Properties=species:S:1:pos:R:3:forces:R:3 energy=-5.552408619188034 pbc="F F F"
Sc       0.00000000       0.00000000       0.00000000       0.00000000       0.00000000       0.02851636
Sc       0.00000000       0.00000000       2.70787879       0.00000000       0.00000000      -0.02851636
2
Properties=species:S:1:pos:R:3:forces:R:3 energy=-5.550672097104011 pbc="F F F"
Sc       0.00000000       0.00000000       0.00000000       0.00000000       0.00000000       0.02649162
Sc       0.00000000       0.00000000       2.76666667       0.00000000       0.00000000      -0.02649162
2
Properties=species:S:1:pos:R:3:forces:R:3 energy=-5.549676760286851 pbc="F F F"
Sc       0.00000000       0.00000000       0.00000000       0.00000000       0.00000000       0.00506533
Sc       0.00000000       0.00000000       2.82545455       0.00000000       0.00000000      -0.00506533
2
Properties=species:S:1:pos:R:3:forces:R:3 energy=-5.550225039414459 pbc="F F F"
Sc       0.00000000       0.00000000       0.00000000       0.00000000       0.00000000      -0.02385417
Sc       0.00000000       0.00000000       2.88424242       0.00000000       0.00000000       0.02385417
2
Properties=species:S:1:pos:R:3:forces:R:3 energy=-5.552362816283458 pbc="F F F"
Sc       0.00000000       0.00000000       0.00000000       0.00000000       0.00000000      -0.04680000
Sc       0.00000000       0.00000000       2.94303030       0.00000000       0.00000000       0.04680000
2
Properties=species:S:1:pos:R:3:forces:R:3 energy=-5.555369928988613 pbc="F F F"
Sc       0.00000000       0.00000000       0.00000000       0.00000000       0.00000000      -0.05163626
Sc       0.00000000       0.00000000       3.00181818       0.00000000       0.00000000       0.05163626
2
Properties=species:S:1:pos:R:3:forces:R:3 energy=-5.557905352958737 pbc="F F F"
Sc       0.00000000       0.00000000       0.00000000       0.00000000       0.00000000      -0.02951507
Sc       0.00000000       0.00000000       3.06060606       0.00000000       0.00000000       0.02951507
2
Properties=species:S:1:pos:R:3:forces:R:3 energy=-5.558140936834447 pbc="F F F"
Sc       0.00000000       0.00000000       0.00000000       0.00000000       0.00000000       0.02856572
Sc       0.00000000       0.00000000       3.11939394       0.00000000       0.00000000      -0.02856572
2
Properties=species:S:1:pos:R:3:forces:R:3 energy=-5.55354288984895 pbc="F F F"
Sc       0.00000000       0.00000000       0.00000000       0.00000000       0.00000000       0.13781956
Sc       0.00000000       0.00000000       3.17818182       0.00000000       0.00000000      -0.13781956
2
Properties=species:S:1:pos:R:3:forces:R:3 energy=-5.540732259340637 pbc="F F F"
Sc       0.00000000       0.00000000       0.00000000       0.00000000       0.00000000       0.30703980
Sc       0.00000000       0.00000000       3.23696970       0.00000000       0.00000000      -0.30703980
2
Properties=species:S:1:pos:R:3:forces:R:3 energy=-5.516835675224204 pbc="F F F"
Sc       0.00000000       0.00000000       0.00000000       0.00000000       0.00000000       0.50600743
Sc       0.00000000       0.00000000       3.29575758       0.00000000       0.00000000      -0.50600743
2
Properties=species:S:1:pos:R:3:forces:R:3 energy=-5.481836306061717 pbc="F F F"
Sc       0.00000000       0.00000000       0.00000000       0.00000000       0.00000000       0.67542458
Sc       0.00000000       0.00000000       3.35454545       0.00000000       0.00000000      -0.67542458
2
Properties=species:S:1:pos:R:3:forces:R:3 energy=-5.438750811731508 pbc="F F F"
Sc       0.00000000       0.00000000       0.00000000       0.00000000       0.00000000       0.77841610
Sc       0.00000000       0.00000000       3.41333333       0.00000000       0.00000000      -0.77841610
2
Properties=species:S:1:pos:R:3:forces:R:3 energy=-5.391630127169418 pbc="F F F"
Sc       0.00000000       0.00000000       0.00000000       0.00000000       0.00000000       0.81480306
Sc       0.00000000       0.00000000       3.47212121       0.00000000       0.00000000      -0.81480306
2
Properties=species:S:1:pos:R:3:forces:R:3 energy=-5.343902587606684 pbc="F F F"
Sc       0.00000000       0.00000000       0.00000000       0.00000000       0.00000000       0.80265051
Sc       0.00000000       0.00000000       3.53090909       0.00000000       0.00000000      -0.80265051
2
Properties=species:S:1:pos:R:3:forces:R:3 energy=-5.2977678798550425 pbc="F F F"
Sc       0.00000000       0.00000000       0.00000000       0.00000000       0.00000000       0.76437658
Sc       0.00000000       0.00000000       3.58969697       0.00000000       0.00000000      -0.76437658
2
Properties=species:S:1:pos:R:3:forces:R:3 energy=-5.254124547988416 pbc="F F F"
Sc       0.00000000       0.00000000       0.00000000       0.00000000       0.00000000       0.72113502
Sc       0.00000000       0.00000000       3.64848485       0.00000000       0.00000000      -0.72113502
2
Properties=species:S:1:pos:R:3:forces:R:3 energy=-5.212750677853419 pbc="F F F"
Sc       0.00000000       0.00000000       0.00000000       0.00000000       0.00000000       0.68938386
Sc       0.00000000       0.00000000       3.70727273       0.00000000       0.00000000      -0.68938386
2
Properties=species:S:1:pos:R:3:forces:R:3 energy=-5.172657365376313 pbc="F F F"
Sc       0.00000000       0.00000000       0.00000000       0.00000000       0.00000000       0.67839140
Sc       0.00000000       0.00000000       3.76606061       0.00000000       0.00000000      -0.67839140
2
Properties=species:S:1:pos:R:3:forces:R:3 energy=-5.132549266130845 pbc="F F F"
Sc       0.00000000       0.00000000       0.00000000       0.00000000       0.00000000       0.68958008
Sc       0.00000000       0.00000000       3.82484848       0.00000000       0.00000000      -0.68958008
2
Properties=species:S:1:pos:R:3:forces:R:3 energy=-5.091239627145215 pbc="F F F"
Sc       0.00000000       0.00000000       0.00000000       0.00000000       0.00000000       0.71800095
Sc       0.00000000       0.00000000       3.88363636       0.00000000       0.00000000      -0.71800095
2
Properties=species:S:1:pos:R:3:forces:R:3 energy=-5.047957749531207 pbc="F F F"
Sc       0.00000000       0.00000000       0.00000000       0.00000000       0.00000000       0.75514436
Sc       0.00000000       0.00000000       3.94242424       0.00000000       0.00000000      -0.75514436
2
Properties=species:S:1:pos:R:3:forces:R:3 energy=-5.002461936878383 pbc="F F F"
Sc       0.00000000       0.00000000       0.00000000       0.00000000       0.00000000       0.79192501
Sc       0.00000000       0.00000000       4.00121212       0.00000000       0.00000000      -0.79192501
2
Properties=species:S:1:pos:R:3:forces:R:3 energy=-4.955002255942396 pbc="F F F"
Sc       0.00000000       0.00000000       0.00000000       0.00000000       0.00000000       0.82087213
Sc       0.00000000       0.00000000       4.06000000       0.00000000       0.00000000      -0.82087213
2
Properties=species:S:1:pos:R:3:forces:R:3 energy=-4.906196074147216 pbc="F F F"
Sc       0.00000000       0.00000000       0.00000000       0.00000000       0.00000000       0.83718795
Sc       0.00000000       0.00000000       4.11878788       0.00000000       0.00000000      -0.83718795
2
Properties=species:S:1:pos:R:3:forces:R:3 energy=-4.856858229529082 pbc="F F F"
Sc       0.00000000       0.00000000       0.00000000       0.00000000       0.00000000       0.83882695
Sc       0.00000000       0.00000000       4.17757576       0.00000000       0.00000000      -0.83882695
2
Properties=species:S:1:pos:R:3:forces:R:3 energy=-4.807855213600753 pbc="F F F"
Sc       0.00000000       0.00000000       0.00000000       0.00000000       0.00000000       0.82597637
Sc       0.00000000       0.00000000       4.23636364       0.00000000       0.00000000      -0.82597637
2
Properties=species:S:1:pos:R:3:forces:R:3 energy=-4.759993120954977 pbc="F F F"
Sc       0.00000000       0.00000000       0.00000000       0.00000000       0.00000000       0.80035841
Sc       0.00000000       0.00000000       4.29515152       0.00000000       0.00000000      -0.80035841
2
Properties=species:S:1:pos:R:3:forces:R:3 energy=-4.7139524492867 pbc="F F F"
Sc       0.00000000       0.00000000       0.00000000       0.00000000       0.00000000       0.76457959
Sc       0.00000000       0.00000000       4.35393939       0.00000000       0.00000000      -0.76457959
2
Properties=species:S:1:pos:R:3:forces:R:3 energy=-4.670240073552458 pbc="F F F"
Sc       0.00000000       0.00000000       0.00000000       0.00000000       0.00000000       0.72156215
Sc       0.00000000       0.00000000       4.41272727       0.00000000       0.00000000      -0.72156215
2
Properties=species:S:1:pos:R:3:forces:R:3 energy=-4.629199341914071 pbc="F F F"
Sc       0.00000000       0.00000000       0.00000000       0.00000000       0.00000000       0.67413098
Sc       0.00000000       0.00000000       4.47151515       0.00000000       0.00000000      -0.67413098
2
Properties=species:S:1:pos:R:3:forces:R:3 energy=-4.591017152268288 pbc="F F F"
Sc       0.00000000       0.00000000       0.00000000       0.00000000       0.00000000       0.62467396
Sc       0.00000000       0.00000000       4.53030303       0.00000000       0.00000000      -0.62467396
2
Properties=species:S:1:pos:R:3:forces:R:3 energy=-4.55575795506867 pbc="F F F"
Sc       0.00000000       0.00000000       0.00000000       0.00000000       0.00000000       0.57494766
Sc       0.00000000       0.00000000       4.58909091       0.00000000       0.00000000      -0.57494766
2
Properties=species:S:1:pos:R:3:forces:R:3 energy=-4.523401398118517 pbc="F F F"
Sc       0.00000000       0.00000000       0.00000000       0.00000000       0.00000000       0.52604264
Sc       0.00000000       0.00000000       4.64787879       0.00000000       0.00000000      -0.52604264
2
Properties=species:S:1:pos:R:3:forces:R:3 energy=-4.493880289809831 pbc="F F F"
Sc       0.00000000       0.00000000       0.00000000       0.00000000       0.00000000       0.47853437
Sc       0.00000000       0.00000000       4.70666667       0.00000000       0.00000000      -0.47853437
2
Properties=species:S:1:pos:R:3:forces:R:3 energy=-4.467103145182128 pbc="F F F"
Sc       0.00000000       0.00000000       0.00000000       0.00000000       0.00000000       0.43276221
Sc       0.00000000       0.00000000       4.76545455       0.00000000       0.00000000      -0.43276221
2
Properties=species:S:1:pos:R:3:forces:R:3 energy=-4.4429566017864435 pbc="F F F"
Sc       0.00000000       0.00000000       0.00000000       0.00000000       0.00000000       0.38909459
Sc       0.00000000       0.00000000       4.82424242       0.00000000       0.00000000      -0.38909459
2
Properties=species:S:1:pos:R:3:forces:R:3 energy=-4.421303634377777 pbc="F F F"
Sc       0.00000000       0.00000000       0.00000000       0.00000000       0.00000000       0.34811518
Sc       0.00000000       0.00000000       4.88303030       0.00000000       0.00000000      -0.34811518
2
Properties=species:S:1:pos:R:3:forces:R:3 energy=-4.40195909050021 pbc="F F F"
Sc       0.00000000       0.00000000       0.00000000       0.00000000       0.00000000       0.31058794
Sc       0.00000000       0.00000000       4.94181818       0.00000000       0.00000000      -0.31058794
2
Properties=species:S:1:pos:R:3:forces:R:3 energy=-4.38470098885888 pbc="F F F"
Sc       0.00000000       0.00000000       0.00000000       0.00000000       0.00000000       0.27730259
Sc       0.00000000       0.00000000       5.00060606       0.00000000       0.00000000      -0.27730259
2
Properties=species:S:1:pos:R:3:forces:R:3 energy=-4.369260925556016 pbc="F F F"
Sc       0.00000000       0.00000000       0.00000000       0.00000000       0.00000000       0.24878542
Sc       0.00000000       0.00000000       5.05939394       0.00000000       0.00000000      -0.24878542
2
Properties=species:S:1:pos:R:3:forces:R:3 energy=-4.355354350914589 pbc="F F F"
Sc       0.00000000       0.00000000       0.00000000       0.00000000       0.00000000       0.22510123
Sc       0.00000000       0.00000000       5.11818182       0.00000000       0.00000000      -0.22510123
2
Properties=species:S:1:pos:R:3:forces:R:3 energy=-4.342709656544951 pbc="F F F"
Sc       0.00000000       0.00000000       0.00000000       0.00000000       0.00000000       0.20575193
Sc       0.00000000       0.00000000       5.17696970       0.00000000       0.00000000      -0.20575193
2
Properties=species:S:1:pos:R:3:forces:R:3 energy=-4.331098127386791 pbc="F F F"
Sc       0.00000000       0.00000000       0.00000000       0.00000000       0.00000000       0.18975413
Sc       0.00000000       0.00000000       5.23575758       0.00000000       0.00000000      -0.18975413
2
Properties=species:S:1:pos:R:3:forces:R:3 energy=-4.320358756248286 pbc="F F F"
Sc       0.00000000       0.00000000       0.00000000       0.00000000       0.00000000       0.17585623
Sc       0.00000000       0.00000000       5.29454545       0.00000000       0.00000000      -0.17585623
2
Properties=species:S:1:pos:R:3:forces:R:3 energy=-4.31040492586197 pbc="F F F"
Sc       0.00000000       0.00000000       0.00000000       0.00000000       0.00000000       0.16279605
Sc       0.00000000       0.00000000       5.35333333       0.00000000       0.00000000      -0.16279605
2
Properties=species:S:1:pos:R:3:forces:R:3 energy=-4.301220975989954 pbc="F F F"
Sc       0.00000000       0.00000000       0.00000000       0.00000000       0.00000000       0.14954448
Sc       0.00000000       0.00000000       5.41212121       0.00000000       0.00000000      -0.14954448
2
Properties=species:S:1:pos:R:3:forces:R:3 energy=-4.292838538964059 pbc="F F F"
Sc       0.00000000       0.00000000       0.00000000       0.00000000       0.00000000       0.13546835
Sc       0.00000000       0.00000000       5.47090909       0.00000000       0.00000000      -0.13546835
2
Properties=species:S:1:pos:R:3:forces:R:3 energy=-4.28531315565813 pbc="F F F"
Sc       0.00000000       0.00000000       0.00000000       0.00000000       0.00000000       0.12037222
Sc       0.00000000       0.00000000       5.52969697       0.00000000       0.00000000      -0.12037222
2
Properties=species:S:1:pos:R:3:forces:R:3 energy=-4.278701422150491 pbc="F F F"
Sc       0.00000000       0.00000000       0.00000000       0.00000000       0.00000000       0.10446951
Sc       0.00000000       0.00000000       5.58848485       0.00000000       0.00000000      -0.10446951
2
Properties=species:S:1:pos:R:3:forces:R:3 energy=-4.273036393764506 pbc="F F F"
Sc       0.00000000       0.00000000       0.00000000       0.00000000       0.00000000       0.08828045
Sc       0.00000000       0.00000000       5.64727273       0.00000000       0.00000000      -0.08828045
2
Properties=species:S:1:pos:R:3:forces:R:3 energy=-4.2683141544326 pbc="F F F"
Sc       0.00000000       0.00000000       0.00000000       0.00000000       0.00000000       0.07253563
Sc       0.00000000       0.00000000       5.70606061       0.00000000       0.00000000      -0.07253563
2
Properties=species:S:1:pos:R:3:forces:R:3 energy=-4.2644815551465 pbc="F F F"
Sc       0.00000000       0.00000000       0.00000000       0.00000000       0.00000000       0.05798909
Sc       0.00000000       0.00000000       5.76484848       0.00000000       0.00000000      -0.05798909
2
Properties=species:S:1:pos:R:3:forces:R:3 energy=-4.261455487016352 pbc="F F F"
Sc       0.00000000       0.00000000       0.00000000       0.00000000       0.00000000       0.04541560
Sc       0.00000000       0.00000000       5.82363636       0.00000000       0.00000000      -0.04541560
2
Properties=species:S:1:pos:R:3:forces:R:3 energy=-4.259094122153596 pbc="F F F"
Sc       0.00000000       0.00000000       0.00000000       0.00000000       0.00000000       0.03546455
Sc       0.00000000       0.00000000       5.88242424       0.00000000       0.00000000      -0.03546455
2
Properties=species:S:1:pos:R:3:forces:R:3 energy=-4.257224321472169 pbc="F F F"
Sc       0.00000000       0.00000000       0.00000000       0.00000000       0.00000000       0.02866601
Sc       0.00000000       0.00000000       5.94121212       0.00000000       0.00000000      -0.02866601
2
Properties=species:S:1:pos:R:3:forces:R:3 energy=-4.255652643124841 pbc="F F F"
Sc       0.00000000       0.00000000       0.00000000       0.00000000       0.00000000       0.02544594
Sc       0.00000000       0.00000000       6.00000000       0.00000000       0.00000000      -0.02544594
