2
Properties=species:S:1:pos:R:3:forces:R:3 energy=5367.703118815453 pbc="F F F"
Se       0.00000000       0.00000000       0.00000000       0.00000000       0.00000000  -84190.93750000
Se       0.00000000       0.00000000       0.18000000       0.00000000       0.00000000   84190.93750000
2
Properties=species:S:1:pos:R:3:forces:R:3 energy=2332.1557555342033 pbc="F F F"
Se       0.00000000       0.00000000       0.00000000       0.00000000       0.00000000  -30003.61132812
Se       0.00000000       0.00000000       0.23878788       0.00000000       0.00000000   30003.61132812
2
Properties=species:S:1:pos:R:3:forces:R:3 energy=1165.9715514358086 pbc="F F F"
Se       0.00000000       0.00000000       0.00000000       0.00000000       0.00000000  -12576.12109375
Se       0.00000000       0.00000000       0.29757576       0.00000000       0.00000000   12576.12109375
2
Properties=species:S:1:pos:R:3:forces:R:3 energy=653.9214415756952 pbc="F F F"
Se       0.00000000       0.00000000       0.00000000       0.00000000       0.00000000   -5812.38574219
Se       0.00000000       0.00000000       0.35636364       0.00000000       0.00000000    5812.38574219
2
Properties=species:S:1:pos:R:3:forces:R:3 energy=410.8866515461362 pbc="F F F"
Se       0.00000000       0.00000000       0.00000000       0.00000000       0.00000000   -2832.29370117
Se       0.00000000       0.00000000       0.41515152       0.00000000       0.00000000    2832.29370117
2
Properties=species:S:1:pos:R:3:forces:R:3 energy=291.5359740812444 pbc="F F F"
Se       0.00000000       0.00000000       0.00000000       0.00000000       0.00000000   -1391.24536133
Se       0.00000000       0.00000000       0.47393939       0.00000000       0.00000000    1391.24536133
2
Properties=species:S:1:pos:R:3:forces:R:3 energy=234.00200805797294 pbc="F F F"
Se       0.00000000       0.00000000       0.00000000       0.00000000       0.00000000    -644.30279541
Se       0.00000000       0.00000000       0.53272727       0.00000000       0.00000000     644.30279541
2
Properties=species:S:1:pos:R:3:forces:R:3 energy=208.96697395114535 pbc="F F F"
Se       0.00000000       0.00000000       0.00000000       0.00000000       0.00000000    -251.48020935
Se       0.00000000       0.00000000       0.59151515       0.00000000       0.00000000     251.48020935
2
Properties=species:S:1:pos:R:3:forces:R:3 energy=200.14460163183134 pbc="F F F"
Se       0.00000000       0.00000000       0.00000000       0.00000000       0.00000000     -79.99069977
Se       0.00000000       0.00000000       0.65030303       0.00000000       0.00000000      79.99069977
2
Properties=species:S:1:pos:R:3:forces:R:3 energy=196.30938148181878 pbc="F F F"
Se       0.00000000       0.00000000       0.00000000       0.00000000       0.00000000     -74.29138947
Se       0.00000000       0.00000000       0.70909091       0.00000000       0.00000000      74.29138947
2
Properties=species:S:1:pos:R:3:forces:R:3 energy=189.22883061946183 pbc="F F F"
Se       0.00000000       0.00000000       0.00000000       0.00000000       0.00000000    -178.77601624
Se       0.00000000       0.00000000       0.76787879       0.00000000       0.00000000     178.77601624
2
Properties=species:S:1:pos:R:3:forces:R:3 energy=174.68166612062217 pbc="F F F"
Se       0.00000000       0.00000000       0.00000000       0.00000000       0.00000000    -314.88619995
Se       0.00000000       0.00000000       0.82666667       0.00000000       0.00000000     314.88619995
2
Properties=species:S:1:pos:R:3:forces:R:3 energy=152.9511979725084 pbc="F F F"
Se       0.00000000       0.00000000       0.00000000       0.00000000       0.00000000    -411.52291870
Se       0.00000000       0.00000000       0.88545455       0.00000000       0.00000000     411.52291870
2
Properties=species:S:1:pos:R:3:forces:R:3 energy=128.79806160811782 pbc="F F F"
Se       0.00000000       0.00000000       0.00000000       0.00000000       0.00000000    -396.16592407
Se       0.00000000       0.00000000       0.94424242       0.00000000       0.00000000     396.16592407
2
Properties=species:S:1:pos:R:3:forces:R:3 energy=105.89001223043137 pbc="F F F"
Se       0.00000000       0.00000000       0.00000000       0.00000000       0.00000000    -381.28887939
Se       0.00000000       0.00000000       1.00303030       0.00000000       0.00000000     381.28887939
2
Properties=species:S:1:pos:R:3:forces:R:3 energy=86.20843420549176 pbc="F F F"
Se       0.00000000       0.00000000       0.00000000       0.00000000       0.00000000    -274.36273193
Se       0.00000000       0.00000000       1.06181818       0.00000000       0.00000000     274.36273193
2
Properties=species:S:1:pos:R:3:forces:R:3 energy=70.89737823914949 pbc="F F F"
Se       0.00000000       0.00000000       0.00000000       0.00000000       0.00000000    -274.14871216
Se       0.00000000       0.00000000       1.12060606       0.00000000       0.00000000     274.14871216
2
Properties=species:S:1:pos:R:3:forces:R:3 energy=55.96544278575417 pbc="F F F"
Se       0.00000000       0.00000000       0.00000000       0.00000000       0.00000000    -233.49491882
Se       0.00000000       0.00000000       1.17939394       0.00000000       0.00000000     233.49491882
2
Properties=species:S:1:pos:R:3:forces:R:3 energy=43.0418661291912 pbc="F F F"
Se       0.00000000       0.00000000       0.00000000       0.00000000       0.00000000    -208.38259888
Se       0.00000000       0.00000000       1.23818182       0.00000000       0.00000000     208.38259888
2
Properties=species:S:1:pos:R:3:forces:R:3 energy=31.456717044618912 pbc="F F F"
Se       0.00000000       0.00000000       0.00000000       0.00000000       0.00000000    -183.33348083
Se       0.00000000       0.00000000       1.29696970       0.00000000       0.00000000     183.33348083
2
Properties=species:S:1:pos:R:3:forces:R:3 energy=21.983486643707472 pbc="F F F"
Se       0.00000000       0.00000000       0.00000000       0.00000000       0.00000000    -135.58805847
Se       0.00000000       0.00000000       1.35575758       0.00000000       0.00000000     135.58805847
2
Properties=species:S:1:pos:R:3:forces:R:3 energy=15.472961379485625 pbc="F F F"
Se       0.00000000       0.00000000       0.00000000       0.00000000       0.00000000     -89.11785889
Se       0.00000000       0.00000000       1.41454545       0.00000000       0.00000000      89.11785889
2
Properties=species:S:1:pos:R:3:forces:R:3 energy=11.072476599051068 pbc="F F F"
Se       0.00000000       0.00000000       0.00000000       0.00000000       0.00000000     -63.82501221
Se       0.00000000       0.00000000       1.47333333       0.00000000       0.00000000      63.82501221
2
Properties=species:S:1:pos:R:3:forces:R:3 energy=7.688722743050859 pbc="F F F"
Se       0.00000000       0.00000000       0.00000000       0.00000000       0.00000000     -52.82844162
Se       0.00000000       0.00000000       1.53212121       0.00000000       0.00000000      52.82844162
2
Properties=species:S:1:pos:R:3:forces:R:3 energy=4.766120519797191 pbc="F F F"
Se       0.00000000       0.00000000       0.00000000       0.00000000       0.00000000     -46.80834198
Se       0.00000000       0.00000000       1.59090909       0.00000000       0.00000000      46.80834198
2
Properties=species:S:1:pos:R:3:forces:R:3 energy=2.200786619995566 pbc="F F F"
Se       0.00000000       0.00000000       0.00000000       0.00000000       0.00000000     -40.18093491
Se       0.00000000       0.00000000       1.64969697       0.00000000       0.00000000      40.18093491
2
Properties=species:S:1:pos:R:3:forces:R:3 energy=0.06795641197125793 pbc="F F F"
Se       0.00000000       0.00000000       0.00000000       0.00000000       0.00000000     -32.28969193
Se       0.00000000       0.00000000       1.70848485       0.00000000       0.00000000      32.28969193
2
Properties=species:S:1:pos:R:3:forces:R:3 energy=-1.6019088504520826 pbc="F F F"
Se       0.00000000       0.00000000       0.00000000       0.00000000       0.00000000     -24.68177414
Se       0.00000000       0.00000000       1.76727273       0.00000000       0.00000000      24.68177414
2
Properties=species:S:1:pos:R:3:forces:R:3 energy=-2.8587764662447537 pbc="F F F"
Se       0.00000000       0.00000000       0.00000000       0.00000000       0.00000000     -18.30587006
Se       0.00000000       0.00000000       1.82606061       0.00000000       0.00000000      18.30587006
2
Properties=species:S:1:pos:R:3:forces:R:3 energy=-3.7797940155949052 pbc="F F F"
Se       0.00000000       0.00000000       0.00000000       0.00000000       0.00000000     -13.22644138
Se       0.00000000       0.00000000       1.88484848       0.00000000       0.00000000      13.22644138
2
Properties=species:S:1:pos:R:3:forces:R:3 energy=-4.434844931919154 pbc="F F F"
Se       0.00000000       0.00000000       0.00000000       0.00000000       0.00000000      -9.21802139
Se       0.00000000       0.00000000       1.94363636       0.00000000       0.00000000       9.21802139
2
Properties=species:S:1:pos:R:3:forces:R:3 energy=-4.880513274153565 pbc="F F F"
Se       0.00000000       0.00000000       0.00000000       0.00000000       0.00000000      -6.07392406
Se       0.00000000       0.00000000       2.00242424       0.00000000       0.00000000       6.07392406
2
Properties=species:S:1:pos:R:3:forces:R:3 energy=-5.162789976863213 pbc="F F F"
Se       0.00000000       0.00000000       0.00000000       0.00000000       0.00000000      -3.63453674
Se       0.00000000       0.00000000       2.06121212       0.00000000       0.00000000       3.63453674
2
Properties=species:S:1:pos:R:3:forces:R:3 energy=-5.318848267037635 pbc="F F F"
Se       0.00000000       0.00000000       0.00000000       0.00000000       0.00000000      -1.75722980
Se       0.00000000       0.00000000       2.12000000       0.00000000       0.00000000       1.75722980
2
Properties=species:S:1:pos:R:3:forces:R:3 energy=-5.377970149185758 pbc="F F F"
Se       0.00000000       0.00000000       0.00000000       0.00000000       0.00000000      -0.31847611
Se       0.00000000       0.00000000       2.17878788       0.00000000       0.00000000       0.31847611
2
Properties=species:S:1:pos:R:3:forces:R:3 energy=-5.363030615675696 pbc="F F F"
Se       0.00000000       0.00000000       0.00000000       0.00000000       0.00000000       0.77596533
Se       0.00000000       0.00000000       2.23757576       0.00000000       0.00000000      -0.77596533
2
Properties=species:S:1:pos:R:3:forces:R:3 energy=-5.292019089890744 pbc="F F F"
Se       0.00000000       0.00000000       0.00000000       0.00000000       0.00000000       1.60074079
Se       0.00000000       0.00000000       2.29636364       0.00000000       0.00000000      -1.60074079
2
Properties=species:S:1:pos:R:3:forces:R:3 energy=-5.178697094040329 pbc="F F F"
Se       0.00000000       0.00000000       0.00000000       0.00000000       0.00000000       2.22767735
Se       0.00000000       0.00000000       2.35515152       0.00000000       0.00000000      -2.22767735
2
Properties=species:S:1:pos:R:3:forces:R:3 energy=-5.0325731890347125 pbc="F F F"
Se       0.00000000       0.00000000       0.00000000       0.00000000       0.00000000       2.72783542
Se       0.00000000       0.00000000       2.41393939       0.00000000       0.00000000      -2.72783542
2
Properties=species:S:1:pos:R:3:forces:R:3 energy=-4.859367439219652 pbc="F F F"
Se       0.00000000       0.00000000       0.00000000       0.00000000       0.00000000       3.15527654
Se       0.00000000       0.00000000       2.47272727       0.00000000       0.00000000      -3.15527654
2
Properties=species:S:1:pos:R:3:forces:R:3 energy=-4.662653771093803 pbc="F F F"
Se       0.00000000       0.00000000       0.00000000       0.00000000       0.00000000       3.52681494
Se       0.00000000       0.00000000       2.53151515       0.00000000       0.00000000      -3.52681494
2
Properties=species:S:1:pos:R:3:forces:R:3 energy=-4.446303600521738 pbc="F F F"
Se       0.00000000       0.00000000       0.00000000       0.00000000       0.00000000       3.81555057
Se       0.00000000       0.00000000       2.59030303       0.00000000       0.00000000      -3.81555057
2
Properties=species:S:1:pos:R:3:forces:R:3 energy=-4.216738818614373 pbc="F F F"
Se       0.00000000       0.00000000       0.00000000       0.00000000       0.00000000       3.96656775
Se       0.00000000       0.00000000       2.64909091       0.00000000       0.00000000      -3.96656775
2
Properties=species:S:1:pos:R:3:forces:R:3 energy=-3.983608265265351 pbc="F F F"
Se       0.00000000       0.00000000       0.00000000       0.00000000       0.00000000       3.93151546
Se       0.00000000       0.00000000       2.70787879       0.00000000       0.00000000      -3.93151546
2
Properties=species:S:1:pos:R:3:forces:R:3 energy=-3.7582908532842265 pbc="F F F"
Se       0.00000000       0.00000000       0.00000000       0.00000000       0.00000000       3.70445776
Se       0.00000000       0.00000000       2.76666667       0.00000000       0.00000000      -3.70445776
2
Properties=species:S:1:pos:R:3:forces:R:3 energy=-3.5508708445821684 pbc="F F F"
Se       0.00000000       0.00000000       0.00000000       0.00000000       0.00000000       3.33480263
Se       0.00000000       0.00000000       2.82545455       0.00000000       0.00000000      -3.33480263
2
Properties=species:S:1:pos:R:3:forces:R:3 energy=-3.367338449258005 pbc="F F F"
Se       0.00000000       0.00000000       0.00000000       0.00000000       0.00000000       2.90673971
Se       0.00000000       0.00000000       2.88424242       0.00000000       0.00000000      -2.90673971
2
Properties=species:S:1:pos:R:3:forces:R:3 energy=-3.208639892287255 pbc="F F F"
Se       0.00000000       0.00000000       0.00000000       0.00000000       0.00000000       2.50149941
Se       0.00000000       0.00000000       2.94303030       0.00000000       0.00000000      -2.50149941
2
Properties=species:S:1:pos:R:3:forces:R:3 energy=-3.071760622818815 pbc="F F F"
Se       0.00000000       0.00000000       0.00000000       0.00000000       0.00000000       2.16964459
Se       0.00000000       0.00000000       3.00181818       0.00000000       0.00000000      -2.16964459
2
Properties=species:S:1:pos:R:3:forces:R:3 energy=-2.951797538422652 pbc="F F F"
Se       0.00000000       0.00000000       0.00000000       0.00000000       0.00000000       1.92594683
Se       0.00000000       0.00000000       3.06060606       0.00000000       0.00000000      -1.92594683
2
Properties=species:S:1:pos:R:3:forces:R:3 energy=-2.843785440964131 pbc="F F F"
Se       0.00000000       0.00000000       0.00000000       0.00000000       0.00000000       1.76000559
Se       0.00000000       0.00000000       3.11939394       0.00000000       0.00000000      -1.76000559
2
Properties=species:S:1:pos:R:3:forces:R:3 energy=-2.743763322853395 pbc="F F F"
Se       0.00000000       0.00000000       0.00000000       0.00000000       0.00000000       1.65020907
Se       0.00000000       0.00000000       3.17818182       0.00000000       0.00000000      -1.65020907
2
Properties=species:S:1:pos:R:3:forces:R:3 energy=-2.6491113181899797 pbc="F F F"
Se       0.00000000       0.00000000       0.00000000       0.00000000       0.00000000       1.57373703
Se       0.00000000       0.00000000       3.23696970       0.00000000       0.00000000      -1.57373703
2
Properties=species:S:1:pos:R:3:forces:R:3 energy=-2.558452521825558 pbc="F F F"
Se       0.00000000       0.00000000       0.00000000       0.00000000       0.00000000       1.51161265
Se       0.00000000       0.00000000       3.29575758       0.00000000       0.00000000      -1.51161265
2
Properties=species:S:1:pos:R:3:forces:R:3 energy=-2.471365938898426 pbc="F F F"
Se       0.00000000       0.00000000       0.00000000       0.00000000       0.00000000       1.45048022
Se       0.00000000       0.00000000       3.35454545       0.00000000       0.00000000      -1.45048022
2
Properties=species:S:1:pos:R:3:forces:R:3 energy=-2.388045480573044 pbc="F F F"
Se       0.00000000       0.00000000       0.00000000       0.00000000       0.00000000       1.38263810
Se       0.00000000       0.00000000       3.41333333       0.00000000       0.00000000      -1.38263810
2
Properties=species:S:1:pos:R:3:forces:R:3 energy=-2.30899047605359 pbc="F F F"
Se       0.00000000       0.00000000       0.00000000       0.00000000       0.00000000       1.30524504
Se       0.00000000       0.00000000       3.47212121       0.00000000       0.00000000      -1.30524504
2
Properties=species:S:1:pos:R:3:forces:R:3 energy=-2.234754504610488 pbc="F F F"
Se       0.00000000       0.00000000       0.00000000       0.00000000       0.00000000       1.21906912
Se       0.00000000       0.00000000       3.53090909       0.00000000       0.00000000      -1.21906912
2
Properties=species:S:1:pos:R:3:forces:R:3 energy=-2.1657725539499317 pbc="F F F"
Se       0.00000000       0.00000000       0.00000000       0.00000000       0.00000000       1.12704861
Se       0.00000000       0.00000000       3.58969697       0.00000000       0.00000000      -1.12704861
2
Properties=species:S:1:pos:R:3:forces:R:3 energy=-2.1022808482148605 pbc="F F F"
Se       0.00000000       0.00000000       0.00000000       0.00000000       0.00000000       1.03295600
Se       0.00000000       0.00000000       3.64848485       0.00000000       0.00000000      -1.03295600
2
Properties=species:S:1:pos:R:3:forces:R:3 energy=-2.0442939693048334 pbc="F F F"
Se       0.00000000       0.00000000       0.00000000       0.00000000       0.00000000       0.94031030
Se       0.00000000       0.00000000       3.70727273       0.00000000       0.00000000      -0.94031030
2
Properties=species:S:1:pos:R:3:forces:R:3 energy=-1.9916419994892154 pbc="F F F"
Se       0.00000000       0.00000000       0.00000000       0.00000000       0.00000000       0.85173607
Se       0.00000000       0.00000000       3.76606061       0.00000000       0.00000000      -0.85173607
2
Properties=species:S:1:pos:R:3:forces:R:3 energy=-1.9440400109195175 pbc="F F F"
Se       0.00000000       0.00000000       0.00000000       0.00000000       0.00000000       0.76872599
Se       0.00000000       0.00000000       3.82484848       0.00000000       0.00000000      -0.76872599
2
Properties=species:S:1:pos:R:3:forces:R:3 energy=-1.90114062267089 pbc="F F F"
Se       0.00000000       0.00000000       0.00000000       0.00000000       0.00000000       0.69172168
Se       0.00000000       0.00000000       3.88363636       0.00000000       0.00000000      -0.69172168
2
Properties=species:S:1:pos:R:3:forces:R:3 energy=-1.8625973254654582 pbc="F F F"
Se       0.00000000       0.00000000       0.00000000       0.00000000       0.00000000       0.62046957
Se       0.00000000       0.00000000       3.94242424       0.00000000       0.00000000      -0.62046957
2
Properties=species:S:1:pos:R:3:forces:R:3 energy=-1.8280872934122248 pbc="F F F"
Se       0.00000000       0.00000000       0.00000000       0.00000000       0.00000000       0.55441976
Se       0.00000000       0.00000000       4.00121212       0.00000000       0.00000000      -0.55441976
2
Properties=species:S:1:pos:R:3:forces:R:3 energy=-1.7973188565944054 pbc="F F F"
Se       0.00000000       0.00000000       0.00000000       0.00000000       0.00000000       0.49309462
Se       0.00000000       0.00000000       4.06000000       0.00000000       0.00000000      -0.49309462
2
Properties=species:S:1:pos:R:3:forces:R:3 energy=-1.7700224289080926 pbc="F F F"
Se       0.00000000       0.00000000       0.00000000       0.00000000       0.00000000       0.43632054
Se       0.00000000       0.00000000       4.11878788       0.00000000       0.00000000      -0.43632054
2
Properties=species:S:1:pos:R:3:forces:R:3 energy=-1.7459256887713643 pbc="F F F"
Se       0.00000000       0.00000000       0.00000000       0.00000000       0.00000000       0.38426670
Se       0.00000000       0.00000000       4.17757576       0.00000000       0.00000000      -0.38426670
2
Properties=species:S:1:pos:R:3:forces:R:3 energy=-1.7247413156545763 pbc="F F F"
Se       0.00000000       0.00000000       0.00000000       0.00000000       0.00000000       0.33732033
Se       0.00000000       0.00000000       4.23636364       0.00000000       0.00000000      -0.33732033
2
Properties=species:S:1:pos:R:3:forces:R:3 energy=-1.7061574517532883 pbc="F F F"
Se       0.00000000       0.00000000       0.00000000       0.00000000       0.00000000       0.29583466
Se       0.00000000       0.00000000       4.29515152       0.00000000       0.00000000      -0.29583466
2
Properties=species:S:1:pos:R:3:forces:R:3 energy=-1.6898491860937959 pbc="F F F"
Se       0.00000000       0.00000000       0.00000000       0.00000000       0.00000000       0.25991794
Se       0.00000000       0.00000000       4.35393939       0.00000000       0.00000000      -0.25991794
2
Properties=species:S:1:pos:R:3:forces:R:3 energy=-1.6754935594804625 pbc="F F F"
Se       0.00000000       0.00000000       0.00000000       0.00000000       0.00000000       0.22930980
Se       0.00000000       0.00000000       4.41272727       0.00000000       0.00000000      -0.22930980
2
Properties=species:S:1:pos:R:3:forces:R:3 energy=-1.6627944586463916 pbc="F F F"
Se       0.00000000       0.00000000       0.00000000       0.00000000       0.00000000       0.20345794
Se       0.00000000       0.00000000       4.47151515       0.00000000       0.00000000      -0.20345794
2
Properties=species:S:1:pos:R:3:forces:R:3 energy=-1.65149149159383 pbc="F F F"
Se       0.00000000       0.00000000       0.00000000       0.00000000       0.00000000       0.18169869
Se       0.00000000       0.00000000       4.53030303       0.00000000       0.00000000      -0.18169869
2
Properties=species:S:1:pos:R:3:forces:R:3 energy=-1.6413626902260092 pbc="F F F"
Se       0.00000000       0.00000000       0.00000000       0.00000000       0.00000000       0.16344017
Se       0.00000000       0.00000000       4.58909091       0.00000000       0.00000000      -0.16344017
2
Properties=species:S:1:pos:R:3:forces:R:3 energy=-1.6322151878479363 pbc="F F F"
Se       0.00000000       0.00000000       0.00000000       0.00000000       0.00000000       0.14824815
Se       0.00000000       0.00000000       4.64787879       0.00000000       0.00000000      -0.14824815
2
Properties=species:S:1:pos:R:3:forces:R:3 energy=-1.6238784630427097 pbc="F F F"
Se       0.00000000       0.00000000       0.00000000       0.00000000       0.00000000       0.13579492
Se       0.00000000       0.00000000       4.70666667       0.00000000       0.00000000      -0.13579492
2
Properties=species:S:1:pos:R:3:forces:R:3 energy=-1.6162017721280408 pbc="F F F"
Se       0.00000000       0.00000000       0.00000000       0.00000000       0.00000000       0.12574334
Se       0.00000000       0.00000000       4.76545455       0.00000000       0.00000000      -0.12574334
2
Properties=species:S:1:pos:R:3:forces:R:3 energy=-1.6090550952870122 pbc="F F F"
Se       0.00000000       0.00000000       0.00000000       0.00000000       0.00000000       0.11766940
Se       0.00000000       0.00000000       4.82424242       0.00000000       0.00000000      -0.11766940
2
Properties=species:S:1:pos:R:3:forces:R:3 energy=-1.602338329146615 pbc="F F F"
Se       0.00000000       0.00000000       0.00000000       0.00000000       0.00000000       0.11105990
Se       0.00000000       0.00000000       4.88303030       0.00000000       0.00000000      -0.11105990
2
Properties=species:S:1:pos:R:3:forces:R:3 energy=-1.5959789263506265 pbc="F F F"
Se       0.00000000       0.00000000       0.00000000       0.00000000       0.00000000       0.10539109
Se       0.00000000       0.00000000       4.94181818       0.00000000       0.00000000      -0.10539109
2
Properties=species:S:1:pos:R:3:forces:R:3 energy=-1.5899367288715447 pbc="F F F"
Se       0.00000000       0.00000000       0.00000000       0.00000000       0.00000000       0.10020955
Se       0.00000000       0.00000000       5.00060606       0.00000000       0.00000000      -0.10020955
2
Properties=species:S:1:pos:R:3:forces:R:3 energy=-1.5841937777842194 pbc="F F F"
Se       0.00000000       0.00000000       0.00000000       0.00000000       0.00000000       0.09516848
Se       0.00000000       0.00000000       5.05939394       0.00000000       0.00000000      -0.09516848
2
Properties=species:S:1:pos:R:3:forces:R:3 energy=-1.578749419349336 pbc="F F F"
Se       0.00000000       0.00000000       0.00000000       0.00000000       0.00000000       0.09001688
Se       0.00000000       0.00000000       5.11818182       0.00000000       0.00000000      -0.09001688
2
Properties=species:S:1:pos:R:3:forces:R:3 energy=-1.5736160855469459 pbc="F F F"
Se       0.00000000       0.00000000       0.00000000       0.00000000       0.00000000       0.08457136
Se       0.00000000       0.00000000       5.17696970       0.00000000       0.00000000      -0.08457136
2
Properties=species:S:1:pos:R:3:forces:R:3 energy=-1.5688150302604857 pbc="F F F"
Se       0.00000000       0.00000000       0.00000000       0.00000000       0.00000000       0.07868921
Se       0.00000000       0.00000000       5.23575758       0.00000000       0.00000000      -0.07868921
2
Properties=species:S:1:pos:R:3:forces:R:3 energy=-1.564374808858369 pbc="F F F"
Se       0.00000000       0.00000000       0.00000000       0.00000000       0.00000000       0.07228037
Se       0.00000000       0.00000000       5.29454545       0.00000000       0.00000000      -0.07228037
2
Properties=species:S:1:pos:R:3:forces:R:3 energy=-1.5603270207136504 pbc="F F F"
Se       0.00000000       0.00000000       0.00000000       0.00000000       0.00000000       0.06532900
Se       0.00000000       0.00000000       5.35333333       0.00000000       0.00000000      -0.06532900
2
Properties=species:S:1:pos:R:3:forces:R:3 energy=-1.5567023796532247 pbc="F F F"
Se       0.00000000       0.00000000       0.00000000       0.00000000       0.00000000       0.05791328
Se       0.00000000       0.00000000       5.41212121       0.00000000       0.00000000      -0.05791328
2
Properties=species:S:1:pos:R:3:forces:R:3 energy=-1.5535237269391438 pbc="F F F"
Se       0.00000000       0.00000000       0.00000000       0.00000000       0.00000000       0.05019979
Se       0.00000000       0.00000000       5.47090909       0.00000000       0.00000000      -0.05019979
2
Properties=species:S:1:pos:R:3:forces:R:3 energy=-1.5508013773545897 pbc="F F F"
Se       0.00000000       0.00000000       0.00000000       0.00000000       0.00000000       0.04241969
Se       0.00000000       0.00000000       5.52969697       0.00000000       0.00000000      -0.04241969
2
Properties=species:S:1:pos:R:3:forces:R:3 energy=-1.5485324261228934 pbc="F F F"
Se       0.00000000       0.00000000       0.00000000       0.00000000       0.00000000       0.03482538
Se       0.00000000       0.00000000       5.58848485       0.00000000       0.00000000      -0.03482538
2
Properties=species:S:1:pos:R:3:forces:R:3 energy=-1.5466983817487874 pbc="F F F"
Se       0.00000000       0.00000000       0.00000000       0.00000000       0.00000000       0.02765912
Se       0.00000000       0.00000000       5.64727273       0.00000000       0.00000000      -0.02765912
2
Properties=species:S:1:pos:R:3:forces:R:3 energy=-1.5452683787295567 pbc="F F F"
Se       0.00000000       0.00000000       0.00000000       0.00000000       0.00000000       0.02112724
Se       0.00000000       0.00000000       5.70606061       0.00000000       0.00000000      -0.02112724
2
Properties=species:S:1:pos:R:3:forces:R:3 energy=-1.5441975252560518 pbc="F F F"
Se       0.00000000       0.00000000       0.00000000       0.00000000       0.00000000       0.01540022
Se       0.00000000       0.00000000       5.76484848       0.00000000       0.00000000      -0.01540022
2
Properties=species:S:1:pos:R:3:forces:R:3 energy=-1.5434381191813282 pbc="F F F"
Se       0.00000000       0.00000000       0.00000000       0.00000000       0.00000000       0.01063277
Se       0.00000000       0.00000000       5.82363636       0.00000000       0.00000000      -0.01063277
2
Properties=species:S:1:pos:R:3:forces:R:3 energy=-1.5429272367912898 pbc="F F F"
Se       0.00000000       0.00000000       0.00000000       0.00000000       0.00000000       0.00696330
Se       0.00000000       0.00000000       5.88242424       0.00000000       0.00000000      -0.00696330
2
Properties=species:S:1:pos:R:3:forces:R:3 energy=-1.5425948528955986 pbc="F F F"
Se       0.00000000       0.00000000       0.00000000       0.00000000       0.00000000       0.00454499
Se       0.00000000       0.00000000       5.94121212       0.00000000       0.00000000      -0.00454499
2
Properties=species:S:1:pos:R:3:forces:R:3 energy=-1.5423645552914582 pbc="F F F"
Se       0.00000000       0.00000000       0.00000000       0.00000000       0.00000000       0.00354915
Se       0.00000000       0.00000000       6.00000000       0.00000000       0.00000000      -0.00354915
