2
Properties=species:S:1:pos:R:3:forces:R:3 energy=5367.703118815453 pbc="F F F"
Se       0.00000000       0.00000000       0.00000000       0.00000000       0.00000000  -84190.92968750
Se       0.00000000       0.00000000       0.18000000       0.00000000       0.00000000   84190.92968750
2
Properties=species:S:1:pos:R:3:forces:R:3 energy=2332.1555113935783 pbc="F F F"
Se       0.00000000       0.00000000       0.00000000       0.00000000       0.00000000  -30003.60937500
Se       0.00000000       0.00000000       0.23878788       0.00000000       0.00000000   30003.60937500
2
Properties=species:S:1:pos:R:3:forces:R:3 energy=1165.971429365496 pbc="F F F"
Se       0.00000000       0.00000000       0.00000000       0.00000000       0.00000000  -12576.12109375
Se       0.00000000       0.00000000       0.29757576       0.00000000       0.00000000   12576.12109375
2
Properties=species:S:1:pos:R:3:forces:R:3 energy=653.9215636460077 pbc="F F F"
Se       0.00000000       0.00000000       0.00000000       0.00000000       0.00000000   -5812.38574219
Se       0.00000000       0.00000000       0.35636364       0.00000000       0.00000000    5812.38574219
2
Properties=species:S:1:pos:R:3:forces:R:3 energy=410.8866820637143 pbc="F F F"
Se       0.00000000       0.00000000       0.00000000       0.00000000       0.00000000   -2832.29370117
Se       0.00000000       0.00000000       0.41515152       0.00000000       0.00000000    2832.29370117
2
Properties=species:S:1:pos:R:3:forces:R:3 energy=291.5359740812444 pbc="F F F"
Se       0.00000000       0.00000000       0.00000000       0.00000000       0.00000000   -1391.24548340
Se       0.00000000       0.00000000       0.47393939       0.00000000       0.00000000    1391.24548340
2
Properties=species:S:1:pos:R:3:forces:R:3 energy=234.00203857555107 pbc="F F F"
Se       0.00000000       0.00000000       0.00000000       0.00000000       0.00000000    -644.30297852
Se       0.00000000       0.00000000       0.53272727       0.00000000       0.00000000     644.30297852
2
Properties=species:S:1:pos:R:3:forces:R:3 energy=208.96718757419222 pbc="F F F"
Se       0.00000000       0.00000000       0.00000000       0.00000000       0.00000000    -251.47991943
Se       0.00000000       0.00000000       0.59151515       0.00000000       0.00000000     251.47991943
2
Properties=species:S:1:pos:R:3:forces:R:3 energy=200.1445711142532 pbc="F F F"
Se       0.00000000       0.00000000       0.00000000       0.00000000       0.00000000     -79.99101257
Se       0.00000000       0.00000000       0.65030303       0.00000000       0.00000000      79.99101257
2
Properties=species:S:1:pos:R:3:forces:R:3 energy=196.3092136351391 pbc="F F F"
Se       0.00000000       0.00000000       0.00000000       0.00000000       0.00000000     -74.29126740
Se       0.00000000       0.00000000       0.70909091       0.00000000       0.00000000      74.29126740
2
Properties=species:S:1:pos:R:3:forces:R:3 energy=189.22886113703996 pbc="F F F"
Se       0.00000000       0.00000000       0.00000000       0.00000000       0.00000000    -178.77578735
Se       0.00000000       0.00000000       0.76787879       0.00000000       0.00000000     178.77578735
2
Properties=species:S:1:pos:R:3:forces:R:3 energy=174.68180344972373 pbc="F F F"
Se       0.00000000       0.00000000       0.00000000       0.00000000       0.00000000    -314.88662720
Se       0.00000000       0.00000000       0.82666667       0.00000000       0.00000000     314.88662720
2
Properties=species:S:1:pos:R:3:forces:R:3 energy=152.95122849008652 pbc="F F F"
Se       0.00000000       0.00000000       0.00000000       0.00000000       0.00000000    -411.52264404
Se       0.00000000       0.00000000       0.88545455       0.00000000       0.00000000     411.52264404
2
Properties=species:S:1:pos:R:3:forces:R:3 energy=128.79809212569594 pbc="F F F"
Se       0.00000000       0.00000000       0.00000000       0.00000000       0.00000000    -396.16580200
Se       0.00000000       0.00000000       0.94424242       0.00000000       0.00000000     396.16580200
2
Properties=species:S:1:pos:R:3:forces:R:3 energy=105.8899969716423 pbc="F F F"
Se       0.00000000       0.00000000       0.00000000       0.00000000       0.00000000    -381.28866577
Se       0.00000000       0.00000000       1.00303030       0.00000000       0.00000000     381.28866577
2
Properties=species:S:1:pos:R:3:forces:R:3 energy=86.20843420549176 pbc="F F F"
Se       0.00000000       0.00000000       0.00000000       0.00000000       0.00000000    -274.36273193
Se       0.00000000       0.00000000       1.06181818       0.00000000       0.00000000     274.36273193
2
Properties=species:S:1:pos:R:3:forces:R:3 energy=70.89743927430574 pbc="F F F"
Se       0.00000000       0.00000000       0.00000000       0.00000000       0.00000000    -274.14855957
Se       0.00000000       0.00000000       1.12060606       0.00000000       0.00000000     274.14855957
2
Properties=species:S:1:pos:R:3:forces:R:3 energy=55.96542752696511 pbc="F F F"
Se       0.00000000       0.00000000       0.00000000       0.00000000       0.00000000    -233.49481201
Se       0.00000000       0.00000000       1.17939394       0.00000000       0.00000000     233.49481201
2
Properties=species:S:1:pos:R:3:forces:R:3 energy=43.04183179691581 pbc="F F F"
Se       0.00000000       0.00000000       0.00000000       0.00000000       0.00000000    -208.38255310
Se       0.00000000       0.00000000       1.23818182       0.00000000       0.00000000     208.38255310
2
Properties=species:S:1:pos:R:3:forces:R:3 energy=31.456724674013444 pbc="F F F"
Se       0.00000000       0.00000000       0.00000000       0.00000000       0.00000000    -183.33352661
Se       0.00000000       0.00000000       1.29696970       0.00000000       0.00000000     183.33352661
2
Properties=species:S:1:pos:R:3:forces:R:3 energy=21.983486643707472 pbc="F F F"
Se       0.00000000       0.00000000       0.00000000       0.00000000       0.00000000    -135.58816528
Se       0.00000000       0.00000000       1.35575758       0.00000000       0.00000000     135.58816528
2
Properties=species:S:1:pos:R:3:forces:R:3 energy=15.472963286834258 pbc="F F F"
Se       0.00000000       0.00000000       0.00000000       0.00000000       0.00000000     -89.11793518
Se       0.00000000       0.00000000       1.41454545       0.00000000       0.00000000      89.11793518
2
Properties=species:S:1:pos:R:3:forces:R:3 energy=11.07247850323188 pbc="F F F"
Se       0.00000000       0.00000000       0.00000000       0.00000000       0.00000000     -63.82499313
Se       0.00000000       0.00000000       1.47333333       0.00000000       0.00000000      63.82499313
2
Properties=species:S:1:pos:R:3:forces:R:3 energy=7.688725604073809 pbc="F F F"
Se       0.00000000       0.00000000       0.00000000       0.00000000       0.00000000     -52.82844162
Se       0.00000000       0.00000000       1.53212121       0.00000000       0.00000000      52.82844162
2
Properties=species:S:1:pos:R:3:forces:R:3 energy=4.766117181937084 pbc="F F F"
Se       0.00000000       0.00000000       0.00000000       0.00000000       0.00000000     -46.80834579
Se       0.00000000       0.00000000       1.59090909       0.00000000       0.00000000      46.80834579
2
Properties=species:S:1:pos:R:3:forces:R:3 energy=2.200787096832724 pbc="F F F"
Se       0.00000000       0.00000000       0.00000000       0.00000000       0.00000000     -40.18095779
Se       0.00000000       0.00000000       1.64969697       0.00000000       0.00000000      40.18095779
2
Properties=species:S:1:pos:R:3:forces:R:3 energy=0.06795903457562805 pbc="F F F"
Se       0.00000000       0.00000000       0.00000000       0.00000000       0.00000000     -32.28970718
Se       0.00000000       0.00000000       1.70848485       0.00000000       0.00000000      32.28970718
2
Properties=species:S:1:pos:R:3:forces:R:3 energy=-1.601906347057002 pbc="F F F"
Se       0.00000000       0.00000000       0.00000000       0.00000000       0.00000000     -24.68179131
Se       0.00000000       0.00000000       1.76727273       0.00000000       0.00000000      24.68179131
2
Properties=species:S:1:pos:R:3:forces:R:3 energy=-2.858781711453494 pbc="F F F"
Se       0.00000000       0.00000000       0.00000000       0.00000000       0.00000000     -18.30584526
Se       0.00000000       0.00000000       1.82606061       0.00000000       0.00000000      18.30584526
2
Properties=species:S:1:pos:R:3:forces:R:3 energy=-3.77979351341517 pbc="F F F"
Se       0.00000000       0.00000000       0.00000000       0.00000000       0.00000000     -13.22644520
Se       0.00000000       0.00000000       1.88484848       0.00000000       0.00000000      13.22644520
2
Properties=species:S:1:pos:R:3:forces:R:3 energy=-4.434844931919154 pbc="F F F"
Se       0.00000000       0.00000000       0.00000000       0.00000000       0.00000000      -9.21801758
Se       0.00000000       0.00000000       1.94363636       0.00000000       0.00000000       9.21801758
2
Properties=species:S:1:pos:R:3:forces:R:3 energy=-4.8805137763333 pbc="F F F"
Se       0.00000000       0.00000000       0.00000000       0.00000000       0.00000000      -6.07393122
Se       0.00000000       0.00000000       2.00242424       0.00000000       0.00000000       6.07393122
2
Properties=species:S:1:pos:R:3:forces:R:3 energy=-5.162790472707304 pbc="F F F"
Se       0.00000000       0.00000000       0.00000000       0.00000000       0.00000000      -3.63453841
Se       0.00000000       0.00000000       2.06121212       0.00000000       0.00000000       3.63453841
2
Properties=species:S:1:pos:R:3:forces:R:3 energy=-5.318849220711951 pbc="F F F"
Se       0.00000000       0.00000000       0.00000000       0.00000000       0.00000000      -1.75722790
Se       0.00000000       0.00000000       2.12000000       0.00000000       0.00000000       1.75722790
2
Properties=species:S:1:pos:R:3:forces:R:3 energy=-5.377970149185758 pbc="F F F"
Se       0.00000000       0.00000000       0.00000000       0.00000000       0.00000000      -0.31847671
Se       0.00000000       0.00000000       2.17878788       0.00000000       0.00000000       0.31847671
2
Properties=species:S:1:pos:R:3:forces:R:3 energy=-5.363029185164222 pbc="F F F"
Se       0.00000000       0.00000000       0.00000000       0.00000000       0.00000000       0.77596605
Se       0.00000000       0.00000000       2.23757576       0.00000000       0.00000000      -0.77596605
2
Properties=species:S:1:pos:R:3:forces:R:3 energy=-5.292019089890744 pbc="F F F"
Se       0.00000000       0.00000000       0.00000000       0.00000000       0.00000000       1.60074258
Se       0.00000000       0.00000000       2.29636364       0.00000000       0.00000000      -1.60074258
2
Properties=species:S:1:pos:R:3:forces:R:3 energy=-5.178697094040329 pbc="F F F"
Se       0.00000000       0.00000000       0.00000000       0.00000000       0.00000000       2.22767687
Se       0.00000000       0.00000000       2.35515152       0.00000000       0.00000000      -2.22767687
2
Properties=species:S:1:pos:R:3:forces:R:3 energy=-5.032572743875776 pbc="F F F"
Se       0.00000000       0.00000000       0.00000000       0.00000000       0.00000000       2.72783804
Se       0.00000000       0.00000000       2.41393939       0.00000000       0.00000000      -2.72783804
2
Properties=species:S:1:pos:R:3:forces:R:3 energy=-4.859368869731127 pbc="F F F"
Se       0.00000000       0.00000000       0.00000000       0.00000000       0.00000000       3.15527439
Se       0.00000000       0.00000000       2.47272727       0.00000000       0.00000000      -3.15527439
2
Properties=species:S:1:pos:R:3:forces:R:3 energy=-4.662652820587309 pbc="F F F"
Se       0.00000000       0.00000000       0.00000000       0.00000000       0.00000000       3.52681494
Se       0.00000000       0.00000000       2.53151515       0.00000000       0.00000000      -3.52681494
2
Properties=species:S:1:pos:R:3:forces:R:3 energy=-4.446304554196054 pbc="F F F"
Se       0.00000000       0.00000000       0.00000000       0.00000000       0.00000000       3.81555200
Se       0.00000000       0.00000000       2.59030303       0.00000000       0.00000000      -3.81555200
2
Properties=species:S:1:pos:R:3:forces:R:3 energy=-4.2167397722886895 pbc="F F F"
Se       0.00000000       0.00000000       0.00000000       0.00000000       0.00000000       3.96657038
Se       0.00000000       0.00000000       2.64909091       0.00000000       0.00000000      -3.96657038
2
Properties=species:S:1:pos:R:3:forces:R:3 energy=-3.9836077630856153 pbc="F F F"
Se       0.00000000       0.00000000       0.00000000       0.00000000       0.00000000       3.93151307
Se       0.00000000       0.00000000       2.70787879       0.00000000       0.00000000      -3.93151307
2
Properties=species:S:1:pos:R:3:forces:R:3 energy=-3.758290351104491 pbc="F F F"
Se       0.00000000       0.00000000       0.00000000       0.00000000       0.00000000       3.70445895
Se       0.00000000       0.00000000       2.76666667       0.00000000       0.00000000      -3.70445895
2
Properties=species:S:1:pos:R:3:forces:R:3 energy=-3.5508710766651035 pbc="F F F"
Se       0.00000000       0.00000000       0.00000000       0.00000000       0.00000000       3.33480453
Se       0.00000000       0.00000000       2.82545455       0.00000000       0.00000000      -3.33480453
2
Properties=species:S:1:pos:R:3:forces:R:3 energy=-3.367339434610543 pbc="F F F"
Se       0.00000000       0.00000000       0.00000000       0.00000000       0.00000000       2.90674210
Se       0.00000000       0.00000000       2.88424242       0.00000000       0.00000000      -2.90674210
2
Properties=species:S:1:pos:R:3:forces:R:3 energy=-3.208640340614014 pbc="F F F"
Se       0.00000000       0.00000000       0.00000000       0.00000000       0.00000000       2.50149918
Se       0.00000000       0.00000000       2.94303030       0.00000000       0.00000000      -2.50149918
2
Properties=species:S:1:pos:R:3:forces:R:3 energy=-3.071760145981657 pbc="F F F"
Se       0.00000000       0.00000000       0.00000000       0.00000000       0.00000000       2.16964412
Se       0.00000000       0.00000000       3.00181818       0.00000000       0.00000000      -2.16964412
2
Properties=species:S:1:pos:R:3:forces:R:3 energy=-2.951797538422652 pbc="F F F"
Se       0.00000000       0.00000000       0.00000000       0.00000000       0.00000000       1.92594659
Se       0.00000000       0.00000000       3.06060606       0.00000000       0.00000000      -1.92594659
2
Properties=species:S:1:pos:R:3:forces:R:3 energy=-2.843785914633467 pbc="F F F"
Se       0.00000000       0.00000000       0.00000000       0.00000000       0.00000000       1.76000667
Se       0.00000000       0.00000000       3.11939394       0.00000000       0.00000000      -1.76000667
2
Properties=species:S:1:pos:R:3:forces:R:3 energy=-2.743763319685573 pbc="F F F"
Se       0.00000000       0.00000000       0.00000000       0.00000000       0.00000000       1.65021098
Se       0.00000000       0.00000000       3.17818182       0.00000000       0.00000000      -1.65021098
2
Properties=species:S:1:pos:R:3:forces:R:3 energy=-2.6491113150221577 pbc="F F F"
Se       0.00000000       0.00000000       0.00000000       0.00000000       0.00000000       1.57373607
Se       0.00000000       0.00000000       3.23696970       0.00000000       0.00000000      -1.57373607
2
Properties=species:S:1:pos:R:3:forces:R:3 energy=-2.5584522770713343 pbc="F F F"
Se       0.00000000       0.00000000       0.00000000       0.00000000       0.00000000       1.51161277
Se       0.00000000       0.00000000       3.29575758       0.00000000       0.00000000      -1.51161277
2
Properties=species:S:1:pos:R:3:forces:R:3 energy=-2.471366145638784 pbc="F F F"
Se       0.00000000       0.00000000       0.00000000       0.00000000       0.00000000       1.45048070
Se       0.00000000       0.00000000       3.35454545       0.00000000       0.00000000      -1.45048070
2
Properties=species:S:1:pos:R:3:forces:R:3 energy=-2.3880457443342005 pbc="F F F"
Se       0.00000000       0.00000000       0.00000000       0.00000000       0.00000000       1.38263750
Se       0.00000000       0.00000000       3.41333333       0.00000000       0.00000000      -1.38263750
2
Properties=species:S:1:pos:R:3:forces:R:3 energy=-2.308990717639991 pbc="F F F"
Se       0.00000000       0.00000000       0.00000000       0.00000000       0.00000000       1.30524457
Se       0.00000000       0.00000000       3.47212121       0.00000000       0.00000000      -1.30524457
2
Properties=species:S:1:pos:R:3:forces:R:3 energy=-2.2347547398612453 pbc="F F F"
Se       0.00000000       0.00000000       0.00000000       0.00000000       0.00000000       1.21906877
Se       0.00000000       0.00000000       3.53090909       0.00000000       0.00000000      -1.21906877
2
Properties=species:S:1:pos:R:3:forces:R:3 energy=-2.1657725539499317 pbc="F F F"
Se       0.00000000       0.00000000       0.00000000       0.00000000       0.00000000       1.12704921
Se       0.00000000       0.00000000       3.58969697       0.00000000       0.00000000      -1.12704921
2
Properties=species:S:1:pos:R:3:forces:R:3 energy=-2.1022808418792165 pbc="F F F"
Se       0.00000000       0.00000000       0.00000000       0.00000000       0.00000000       1.03295553
Se       0.00000000       0.00000000       3.64848485       0.00000000       0.00000000      -1.03295553
2
Properties=species:S:1:pos:R:3:forces:R:3 energy=-2.044293956633545 pbc="F F F"
Se       0.00000000       0.00000000       0.00000000       0.00000000       0.00000000       0.94030982
Se       0.00000000       0.00000000       3.70727273       0.00000000       0.00000000      -0.94030982
2
Properties=species:S:1:pos:R:3:forces:R:3 energy=-1.9916422379077945 pbc="F F F"
Se       0.00000000       0.00000000       0.00000000       0.00000000       0.00000000       0.85173756
Se       0.00000000       0.00000000       3.76606061       0.00000000       0.00000000      -0.85173756
2
Properties=species:S:1:pos:R:3:forces:R:3 energy=-1.9440401269609848 pbc="F F F"
Se       0.00000000       0.00000000       0.00000000       0.00000000       0.00000000       0.76872587
Se       0.00000000       0.00000000       3.82484848       0.00000000       0.00000000      -0.76872587
2
Properties=species:S:1:pos:R:3:forces:R:3 energy=-1.9011408515860027 pbc="F F F"
Se       0.00000000       0.00000000       0.00000000       0.00000000       0.00000000       0.69172108
Se       0.00000000       0.00000000       3.88363636       0.00000000       0.00000000      -0.69172108
2
Properties=species:S:1:pos:R:3:forces:R:3 energy=-1.8625974335873703 pbc="F F F"
Se       0.00000000       0.00000000       0.00000000       0.00000000       0.00000000       0.62046921
Se       0.00000000       0.00000000       3.94242424       0.00000000       0.00000000      -0.62046921
2
Properties=species:S:1:pos:R:3:forces:R:3 energy=-1.8280872823248473 pbc="F F F"
Se       0.00000000       0.00000000       0.00000000       0.00000000       0.00000000       0.55442017
Se       0.00000000       0.00000000       4.00121212       0.00000000       0.00000000      -0.55442017
2
Properties=species:S:1:pos:R:3:forces:R:3 energy=-1.7973189631324062 pbc="F F F"
Se       0.00000000       0.00000000       0.00000000       0.00000000       0.00000000       0.49309433
Se       0.00000000       0.00000000       4.06000000       0.00000000       0.00000000      -0.49309433
2
Properties=species:S:1:pos:R:3:forces:R:3 energy=-1.770022670494494 pbc="F F F"
Se       0.00000000       0.00000000       0.00000000       0.00000000       0.00000000       0.43632063
Se       0.00000000       0.00000000       4.11878788       0.00000000       0.00000000      -0.43632063
2
Properties=species:S:1:pos:R:3:forces:R:3 energy=-1.74592568243572 pbc="F F F"
Se       0.00000000       0.00000000       0.00000000       0.00000000       0.00000000       0.38426694
Se       0.00000000       0.00000000       4.17757576       0.00000000       0.00000000      -0.38426694
2
Properties=species:S:1:pos:R:3:forces:R:3 energy=-1.7247413045671989 pbc="F F F"
Se       0.00000000       0.00000000       0.00000000       0.00000000       0.00000000       0.33732051
Se       0.00000000       0.00000000       4.23636364       0.00000000       0.00000000      -0.33732051
2
Properties=species:S:1:pos:R:3:forces:R:3 energy=-1.7061574517532883 pbc="F F F"
Se       0.00000000       0.00000000       0.00000000       0.00000000       0.00000000       0.29583457
Se       0.00000000       0.00000000       4.29515152       0.00000000       0.00000000      -0.29583457
2
Properties=species:S:1:pos:R:3:forces:R:3 energy=-1.6898493053030854 pbc="F F F"
Se       0.00000000       0.00000000       0.00000000       0.00000000       0.00000000       0.25991786
Se       0.00000000       0.00000000       4.35393939       0.00000000       0.00000000      -0.25991786
2
Properties=species:S:1:pos:R:3:forces:R:3 energy=-1.6754937804760197 pbc="F F F"
Se       0.00000000       0.00000000       0.00000000       0.00000000       0.00000000       0.22930938
Se       0.00000000       0.00000000       4.41272727       0.00000000       0.00000000      -0.22930938
2
Properties=species:S:1:pos:R:3:forces:R:3 energy=-1.6627944586463916 pbc="F F F"
Se       0.00000000       0.00000000       0.00000000       0.00000000       0.00000000       0.20345844
Se       0.00000000       0.00000000       4.47151515       0.00000000       0.00000000      -0.20345844
2
Properties=species:S:1:pos:R:3:forces:R:3 energy=-1.651491488426008 pbc="F F F"
Se       0.00000000       0.00000000       0.00000000       0.00000000       0.00000000       0.18169919
Se       0.00000000       0.00000000       4.53030303       0.00000000       0.00000000      -0.18169919
2
Properties=species:S:1:pos:R:3:forces:R:3 energy=-1.6413626823064538 pbc="F F F"
Se       0.00000000       0.00000000       0.00000000       0.00000000       0.00000000       0.16344066
Se       0.00000000       0.00000000       4.58909091       0.00000000       0.00000000      -0.16344066
2
Properties=species:S:1:pos:R:3:forces:R:3 energy=-1.6322151878479363 pbc="F F F"
Se       0.00000000       0.00000000       0.00000000       0.00000000       0.00000000       0.14824884
Se       0.00000000       0.00000000       4.64787879       0.00000000       0.00000000      -0.14824884
2
Properties=species:S:1:pos:R:3:forces:R:3 energy=-1.6238784630427097 pbc="F F F"
Se       0.00000000       0.00000000       0.00000000       0.00000000       0.00000000       0.13579480
Se       0.00000000       0.00000000       4.70666667       0.00000000       0.00000000      -0.13579480
2
Properties=species:S:1:pos:R:3:forces:R:3 energy=-1.6162017729199964 pbc="F F F"
Se       0.00000000       0.00000000       0.00000000       0.00000000       0.00000000       0.12574337
Se       0.00000000       0.00000000       4.76545455       0.00000000       0.00000000      -0.12574337
2
Properties=species:S:1:pos:R:3:forces:R:3 energy=-1.609054856868433 pbc="F F F"
Se       0.00000000       0.00000000       0.00000000       0.00000000       0.00000000       0.11766849
Se       0.00000000       0.00000000       4.82424242       0.00000000       0.00000000      -0.11766849
2
Properties=species:S:1:pos:R:3:forces:R:3 energy=-1.602338329146615 pbc="F F F"
Se       0.00000000       0.00000000       0.00000000       0.00000000       0.00000000       0.11105988
Se       0.00000000       0.00000000       4.88303030       0.00000000       0.00000000      -0.11105988
2
Properties=species:S:1:pos:R:3:forces:R:3 energy=-1.595978927142582 pbc="F F F"
Se       0.00000000       0.00000000       0.00000000       0.00000000       0.00000000       0.10539042
Se       0.00000000       0.00000000       4.94181818       0.00000000       0.00000000      -0.10539042
2
Properties=species:S:1:pos:R:3:forces:R:3 energy=-1.5899370864994133 pbc="F F F"
Se       0.00000000       0.00000000       0.00000000       0.00000000       0.00000000       0.10020994
Se       0.00000000       0.00000000       5.00060606       0.00000000       0.00000000      -0.10020994
2
Properties=species:S:1:pos:R:3:forces:R:3 energy=-1.584193778576175 pbc="F F F"
Se       0.00000000       0.00000000       0.00000000       0.00000000       0.00000000       0.09516861
Se       0.00000000       0.00000000       5.05939394       0.00000000       0.00000000      -0.09516861
2
Properties=species:S:1:pos:R:3:forces:R:3 energy=-1.5787497769772048 pbc="F F F"
Se       0.00000000       0.00000000       0.00000000       0.00000000       0.00000000       0.09001783
Se       0.00000000       0.00000000       5.11818182       0.00000000       0.00000000      -0.09001783
2
Properties=species:S:1:pos:R:3:forces:R:3 energy=-1.5736160823791236 pbc="F F F"
Se       0.00000000       0.00000000       0.00000000       0.00000000       0.00000000       0.08457123
Se       0.00000000       0.00000000       5.17696970       0.00000000       0.00000000      -0.08457123
2
Properties=species:S:1:pos:R:3:forces:R:3 energy=-1.5688150302604857 pbc="F F F"
Se       0.00000000       0.00000000       0.00000000       0.00000000       0.00000000       0.07868928
Se       0.00000000       0.00000000       5.23575758       0.00000000       0.00000000      -0.07868928
2
Properties=species:S:1:pos:R:3:forces:R:3 energy=-1.56437457043979 pbc="F F F"
Se       0.00000000       0.00000000       0.00000000       0.00000000       0.00000000       0.07228035
Se       0.00000000       0.00000000       5.29454545       0.00000000       0.00000000      -0.07228035
2
Properties=species:S:1:pos:R:3:forces:R:3 energy=-1.5603270175458284 pbc="F F F"
Se       0.00000000       0.00000000       0.00000000       0.00000000       0.00000000       0.06532883
Se       0.00000000       0.00000000       5.35333333       0.00000000       0.00000000      -0.06532883
2
Properties=species:S:1:pos:R:3:forces:R:3 energy=-1.5567028564903829 pbc="F F F"
Se       0.00000000       0.00000000       0.00000000       0.00000000       0.00000000       0.05791378
Se       0.00000000       0.00000000       5.41212121       0.00000000       0.00000000      -0.05791378
2
Properties=species:S:1:pos:R:3:forces:R:3 energy=-1.5535237269391438 pbc="F F F"
Se       0.00000000       0.00000000       0.00000000       0.00000000       0.00000000       0.05019949
Se       0.00000000       0.00000000       5.47090909       0.00000000       0.00000000      -0.05019949
2
Properties=species:S:1:pos:R:3:forces:R:3 energy=-1.5508013745827454 pbc="F F F"
Se       0.00000000       0.00000000       0.00000000       0.00000000       0.00000000       0.04242055
Se       0.00000000       0.00000000       5.52969697       0.00000000       0.00000000      -0.04242055
2
Properties=species:S:1:pos:R:3:forces:R:3 energy=-1.5485324261228934 pbc="F F F"
Se       0.00000000       0.00000000       0.00000000       0.00000000       0.00000000       0.03482479
Se       0.00000000       0.00000000       5.58848485       0.00000000       0.00000000      -0.03482479
2
Properties=species:S:1:pos:R:3:forces:R:3 energy=-1.5466993354231038 pbc="F F F"
Se       0.00000000       0.00000000       0.00000000       0.00000000       0.00000000       0.02766006
Se       0.00000000       0.00000000       5.64727273       0.00000000       0.00000000      -0.02766006
2
Properties=species:S:1:pos:R:3:forces:R:3 energy=-1.5452683767496678 pbc="F F F"
Se       0.00000000       0.00000000       0.00000000       0.00000000       0.00000000       0.02112798
Se       0.00000000       0.00000000       5.70606061       0.00000000       0.00000000      -0.02112798
2
Properties=species:S:1:pos:R:3:forces:R:3 energy=-1.5441975252560518 pbc="F F F"
Se       0.00000000       0.00000000       0.00000000       0.00000000       0.00000000       0.01540091
Se       0.00000000       0.00000000       5.76484848       0.00000000       0.00000000      -0.01540091
2
Properties=species:S:1:pos:R:3:forces:R:3 energy=-1.54343764234417 pbc="F F F"
Se       0.00000000       0.00000000       0.00000000       0.00000000       0.00000000       0.01063255
Se       0.00000000       0.00000000       5.82363636       0.00000000       0.00000000      -0.01063255
2
Properties=species:S:1:pos:R:3:forces:R:3 energy=-1.5429272359993342 pbc="F F F"
Se       0.00000000       0.00000000       0.00000000       0.00000000       0.00000000       0.00696402
Se       0.00000000       0.00000000       5.88242424       0.00000000       0.00000000      -0.00696402
2
Properties=species:S:1:pos:R:3:forces:R:3 energy=-1.542594852499621 pbc="F F F"
Se       0.00000000       0.00000000       0.00000000       0.00000000       0.00000000       0.00454628
Se       0.00000000       0.00000000       5.94121212       0.00000000       0.00000000      -0.00454628
2
Properties=species:S:1:pos:R:3:forces:R:3 energy=-1.5423645548954805 pbc="F F F"
Se       0.00000000       0.00000000       0.00000000       0.00000000       0.00000000       0.00354915
Se       0.00000000       0.00000000       6.00000000       0.00000000       0.00000000      -0.00354915
