2
Properties=species:S:1:pos:R:3:forces:R:3 energy=24154.177239909204 pbc="F F F"
Se       0.00000000       0.00000000       0.00000000       0.00000000       0.00000000 -555361.56250000
Se       0.00000000       0.00000000       0.10000000       0.00000000       0.00000000  555361.56250000
2
Properties=species:S:1:pos:R:3:forces:R:3 energy=7489.576165690453 pbc="F F F"
Se       0.00000000       0.00000000       0.00000000       0.00000000       0.00000000 -127375.53906250
Se       0.00000000       0.00000000       0.15959596       0.00000000       0.00000000  127375.53906250
2
Properties=species:S:1:pos:R:3:forces:R:3 energy=3024.5927672529533 pbc="F F F"
Se       0.00000000       0.00000000       0.00000000       0.00000000       0.00000000  -41390.35937500
Se       0.00000000       0.00000000       0.21919192       0.00000000       0.00000000   41390.35937500
2
Properties=species:S:1:pos:R:3:forces:R:3 energy=1436.242181318621 pbc="F F F"
Se       0.00000000       0.00000000       0.00000000       0.00000000       0.00000000  -16388.20703125
Se       0.00000000       0.00000000       0.27878788       0.00000000       0.00000000   16388.20703125
2
Properties=species:S:1:pos:R:3:forces:R:3 energy=771.2794737990899 pbc="F F F"
Se       0.00000000       0.00000000       0.00000000       0.00000000       0.00000000   -7304.82080078
Se       0.00000000       0.00000000       0.33838384       0.00000000       0.00000000    7304.82080078
2
Properties=species:S:1:pos:R:3:forces:R:3 energy=464.91420891918307 pbc="F F F"
Se       0.00000000       0.00000000       0.00000000       0.00000000       0.00000000   -3483.50097656
Se       0.00000000       0.00000000       0.39797980       0.00000000       0.00000000    3483.50097656
2
Properties=species:S:1:pos:R:3:forces:R:3 energy=316.7485290033815 pbc="F F F"
Se       0.00000000       0.00000000       0.00000000       0.00000000       0.00000000   -1699.73425293
Se       0.00000000       0.00000000       0.45757576       0.00000000       0.00000000    1699.73425293
2
Properties=species:S:1:pos:R:3:forces:R:3 energy=245.19175108412603 pbc="F F F"
Se       0.00000000       0.00000000       0.00000000       0.00000000       0.00000000    -798.66583252
Se       0.00000000       0.00000000       0.51717172       0.00000000       0.00000000     798.66583252
2
Properties=species:S:1:pos:R:3:forces:R:3 energy=213.2084747834628 pbc="F F F"
Se       0.00000000       0.00000000       0.00000000       0.00000000       0.00000000    -326.09487915
Se       0.00000000       0.00000000       0.57676768       0.00000000       0.00000000     326.09487915
2
Properties=species:S:1:pos:R:3:forces:R:3 energy=201.41585709014936 pbc="F F F"
Se       0.00000000       0.00000000       0.00000000       0.00000000       0.00000000    -104.02435303
Se       0.00000000       0.00000000       0.63636364       0.00000000       0.00000000     104.02435303
2
Properties=species:S:1:pos:R:3:forces:R:3 energy=197.20818514207113 pbc="F F F"
Se       0.00000000       0.00000000       0.00000000       0.00000000       0.00000000     -63.60069656
Se       0.00000000       0.00000000       0.69595960       0.00000000       0.00000000      63.60069656
2
Properties=species:S:1:pos:R:3:forces:R:3 energy=191.26227781539475 pbc="F F F"
Se       0.00000000       0.00000000       0.00000000       0.00000000       0.00000000    -151.49732971
Se       0.00000000       0.00000000       0.75555556       0.00000000       0.00000000     151.49732971
2
Properties=species:S:1:pos:R:3:forces:R:3 energy=178.16172278828282 pbc="F F F"
Se       0.00000000       0.00000000       0.00000000       0.00000000       0.00000000    -289.33135986
Se       0.00000000       0.00000000       0.81515152       0.00000000       0.00000000     289.33135986
2
Properties=species:S:1:pos:R:3:forces:R:3 energy=157.3034469913033 pbc="F F F"
Se       0.00000000       0.00000000       0.00000000       0.00000000       0.00000000    -400.66397095
Se       0.00000000       0.00000000       0.87474747       0.00000000       0.00000000     400.66397095
2
Properties=species:S:1:pos:R:3:forces:R:3 energy=132.74682243605486 pbc="F F F"
Se       0.00000000       0.00000000       0.00000000       0.00000000       0.00000000    -401.93978882
Se       0.00000000       0.00000000       0.93434343       0.00000000       0.00000000     401.93978882
2
Properties=species:S:1:pos:R:3:forces:R:3 energy=109.38271832651887 pbc="F F F"
Se       0.00000000       0.00000000       0.00000000       0.00000000       0.00000000    -386.55557251
Se       0.00000000       0.00000000       0.99393939       0.00000000       0.00000000     386.55557251
2
Properties=species:S:1:pos:R:3:forces:R:3 energy=88.55457958511661 pbc="F F F"
Se       0.00000000       0.00000000       0.00000000       0.00000000       0.00000000    -292.29782104
Se       0.00000000       0.00000000       1.05353535       0.00000000       0.00000000     292.29782104
2
Properties=species:S:1:pos:R:3:forces:R:3 energy=72.95136353707733 pbc="F F F"
Se       0.00000000       0.00000000       0.00000000       0.00000000       0.00000000    -274.75424194
Se       0.00000000       0.00000000       1.11313131       0.00000000       0.00000000     274.75424194
2
Properties=species:S:1:pos:R:3:forces:R:3 energy=57.53526284451429 pbc="F F F"
Se       0.00000000       0.00000000       0.00000000       0.00000000       0.00000000    -237.50593567
Se       0.00000000       0.00000000       1.17272727       0.00000000       0.00000000     237.50593567
2
Properties=species:S:1:pos:R:3:forces:R:3 energy=44.26866093608228 pbc="F F F"
Se       0.00000000       0.00000000       0.00000000       0.00000000       0.00000000    -210.44174194
Se       0.00000000       0.00000000       1.23232323       0.00000000       0.00000000     210.44174194
2
Properties=species:S:1:pos:R:3:forces:R:3 energy=32.39005287172967 pbc="F F F"
Se       0.00000000       0.00000000       0.00000000       0.00000000       0.00000000    -186.24237061
Se       0.00000000       0.00000000       1.29191919       0.00000000       0.00000000     186.24237061
2
Properties=species:S:1:pos:R:3:forces:R:3 energy=22.5670356870528 pbc="F F F"
Se       0.00000000       0.00000000       0.00000000       0.00000000       0.00000000    -139.49822998
Se       0.00000000       0.00000000       1.35151515       0.00000000       0.00000000     139.49822998
2
Properties=species:S:1:pos:R:3:forces:R:3 energy=15.782670469101609 pbc="F F F"
Se       0.00000000       0.00000000       0.00000000       0.00000000       0.00000000     -91.24630737
Se       0.00000000       0.00000000       1.41111111       0.00000000       0.00000000      91.24630737
2
Properties=species:S:1:pos:R:3:forces:R:3 energy=11.241053356105478 pbc="F F F"
Se       0.00000000       0.00000000       0.00000000       0.00000000       0.00000000     -64.57318115
Se       0.00000000       0.00000000       1.47070707       0.00000000       0.00000000      64.57318115
2
Properties=species:S:1:pos:R:3:forces:R:3 energy=7.784975764328412 pbc="F F F"
Se       0.00000000       0.00000000       0.00000000       0.00000000       0.00000000     -53.05248642
Se       0.00000000       0.00000000       1.53030303       0.00000000       0.00000000      53.05248642
2
Properties=species:S:1:pos:R:3:forces:R:3 energy=4.813450645857503 pbc="F F F"
Se       0.00000000       0.00000000       0.00000000       0.00000000       0.00000000     -46.90843582
Se       0.00000000       0.00000000       1.58989899       0.00000000       0.00000000      46.90843582
2
Properties=species:S:1:pos:R:3:forces:R:3 energy=2.208895652519347 pbc="F F F"
Se       0.00000000       0.00000000       0.00000000       0.00000000       0.00000000     -40.20658875
Se       0.00000000       0.00000000       1.64949495       0.00000000       0.00000000      40.20658875
2
Properties=species:S:1:pos:R:3:forces:R:3 energy=0.04841787036574443 pbc="F F F"
Se       0.00000000       0.00000000       0.00000000       0.00000000       0.00000000     -32.20720673
Se       0.00000000       0.00000000       1.70909091       0.00000000       0.00000000      32.20720673
2
Properties=species:S:1:pos:R:3:forces:R:3 energy=-1.6366916309150927 pbc="F F F"
Se       0.00000000       0.00000000       0.00000000       0.00000000       0.00000000     -24.51240921
Se       0.00000000       0.00000000       1.76868687       0.00000000       0.00000000      24.51240921
2
Properties=species:S:1:pos:R:3:forces:R:3 energy=-2.899223028269894 pbc="F F F"
Se       0.00000000       0.00000000       0.00000000       0.00000000       0.00000000     -18.09142876
Se       0.00000000       0.00000000       1.82828283       0.00000000       0.00000000      18.09142876
2
Properties=species:S:1:pos:R:3:forces:R:3 energy=-3.819520298581401 pbc="F F F"
Se       0.00000000       0.00000000       0.00000000       0.00000000       0.00000000     -12.99569988
Se       0.00000000       0.00000000       1.88787879       0.00000000       0.00000000      12.99569988
2
Properties=species:S:1:pos:R:3:forces:R:3 energy=-4.469781458671259 pbc="F F F"
Se       0.00000000       0.00000000       0.00000000       0.00000000       0.00000000      -8.98827171
Se       0.00000000       0.00000000       1.94747475       0.00000000       0.00000000       8.98827171
2
Properties=species:S:1:pos:R:3:forces:R:3 energy=-4.90823220693745 pbc="F F F"
Se       0.00000000       0.00000000       0.00000000       0.00000000       0.00000000      -5.85740423
Se       0.00000000       0.00000000       2.00707071       0.00000000       0.00000000       5.85740423
2
Properties=species:S:1:pos:R:3:forces:R:3 energy=-5.182080290345053 pbc="F F F"
Se       0.00000000       0.00000000       0.00000000       0.00000000       0.00000000      -3.43877792
Se       0.00000000       0.00000000       2.06666667       0.00000000       0.00000000       3.43877792
2
Properties=species:S:1:pos:R:3:forces:R:3 energy=-5.329312480264121 pbc="F F F"
Se       0.00000000       0.00000000       0.00000000       0.00000000       0.00000000      -1.58498454
Se       0.00000000       0.00000000       2.12626263       0.00000000       0.00000000       1.58498454
2
Properties=species:S:1:pos:R:3:forces:R:3 energy=-5.379693128163597 pbc="F F F"
Se       0.00000000       0.00000000       0.00000000       0.00000000       0.00000000      -0.17020731
Se       0.00000000       0.00000000       2.18585859       0.00000000       0.00000000       0.17020731
2
Properties=species:S:1:pos:R:3:forces:R:3 energy=-5.35641875720822 pbc="F F F"
Se       0.00000000       0.00000000       0.00000000       0.00000000       0.00000000       0.90060818
Se       0.00000000       0.00000000       2.24545455       0.00000000       0.00000000      -0.90060818
2
Properties=species:S:1:pos:R:3:forces:R:3 energy=-5.2776601869702136 pbc="F F F"
Se       0.00000000       0.00000000       0.00000000       0.00000000       0.00000000       1.70407808
Se       0.00000000       0.00000000       2.30505051       0.00000000       0.00000000      -1.70407808
2
Properties=species:S:1:pos:R:3:forces:R:3 energy=-5.157127075282535 pbc="F F F"
Se       0.00000000       0.00000000       0.00000000       0.00000000       0.00000000       2.31530285
Se       0.00000000       0.00000000       2.36464646       0.00000000       0.00000000      -2.31530285
2
Properties=species:S:1:pos:R:3:forces:R:3 energy=-5.004057432653059 pbc="F F F"
Se       0.00000000       0.00000000       0.00000000       0.00000000       0.00000000       2.80695581
Se       0.00000000       0.00000000       2.42424242       0.00000000       0.00000000      -2.80695581
2
Properties=species:S:1:pos:R:3:forces:R:3 energy=-4.823893232329647 pbc="F F F"
Se       0.00000000       0.00000000       0.00000000       0.00000000       0.00000000       3.23002100
Se       0.00000000       0.00000000       2.48383838       0.00000000       0.00000000      -3.23002100
2
Properties=species:S:1:pos:R:3:forces:R:3 energy=-4.620213617509296 pbc="F F F"
Se       0.00000000       0.00000000       0.00000000       0.00000000       0.00000000       3.59360194
Se       0.00000000       0.00000000       2.54343434       0.00000000       0.00000000      -3.59360194
2
Properties=species:S:1:pos:R:3:forces:R:3 energy=-4.397439111386565 pbc="F F F"
Se       0.00000000       0.00000000       0.00000000       0.00000000       0.00000000       3.86196542
Se       0.00000000       0.00000000       2.60303030       0.00000000       0.00000000      -3.86196542
2
Properties=species:S:1:pos:R:3:forces:R:3 energy=-4.1629733019073365 pbc="F F F"
Se       0.00000000       0.00000000       0.00000000       0.00000000       0.00000000       3.97608590
Se       0.00000000       0.00000000       2.66262626       0.00000000       0.00000000      -3.97608590
2
Properties=species:S:1:pos:R:3:forces:R:3 energy=-3.9274801867646683 pbc="F F F"
Se       0.00000000       0.00000000       0.00000000       0.00000000       0.00000000       3.89281821
Se       0.00000000       0.00000000       2.72222222       0.00000000       0.00000000      -3.89281821
2
Properties=species:S:1:pos:R:3:forces:R:3 energy=-3.702791976675348 pbc="F F F"
Se       0.00000000       0.00000000       0.00000000       0.00000000       0.00000000       3.61977077
Se       0.00000000       0.00000000       2.78181818       0.00000000       0.00000000      -3.61977077
2
Properties=species:S:1:pos:R:3:forces:R:3 energy=-3.4985551590254484 pbc="F F F"
Se       0.00000000       0.00000000       0.00000000       0.00000000       0.00000000       3.22060800
Se       0.00000000       0.00000000       2.84141414       0.00000000       0.00000000      -3.22060800
2
Properties=species:S:1:pos:R:3:forces:R:3 energy=-3.3196172511814956 pbc="F F F"
Se       0.00000000       0.00000000       0.00000000       0.00000000       0.00000000       2.78591943
Se       0.00000000       0.00000000       2.90101010       0.00000000       0.00000000      -2.78591943
2
Properties=species:S:1:pos:R:3:forces:R:3 energy=-3.1656363468856332 pbc="F F F"
Se       0.00000000       0.00000000       0.00000000       0.00000000       0.00000000       2.39329147
Se       0.00000000       0.00000000       2.96060606       0.00000000       0.00000000      -2.39329147
2
Properties=species:S:1:pos:R:3:forces:R:3 energy=-3.0326740613066048 pbc="F F F"
Se       0.00000000       0.00000000       0.00000000       0.00000000       0.00000000       2.08408713
Se       0.00000000       0.00000000       3.02020202       0.00000000       0.00000000      -2.08408713
2
Properties=species:S:1:pos:R:3:forces:R:3 energy=-2.9154410864263722 pbc="F F F"
Se       0.00000000       0.00000000       0.00000000       0.00000000       0.00000000       1.86416423
Se       0.00000000       0.00000000       3.07979798       0.00000000       0.00000000      -1.86416423
2
Properties=species:S:1:pos:R:3:forces:R:3 energy=-2.8090198413018563 pbc="F F F"
Se       0.00000000       0.00000000       0.00000000       0.00000000       0.00000000       1.71753776
Se       0.00000000       0.00000000       3.13939394       0.00000000       0.00000000      -1.71753776
2
Properties=species:S:1:pos:R:3:forces:R:3 energy=-2.709741991820205 pbc="F F F"
Se       0.00000000       0.00000000       0.00000000       0.00000000       0.00000000       1.62042105
Se       0.00000000       0.00000000       3.19898990       0.00000000       0.00000000      -1.62042105
2
Properties=species:S:1:pos:R:3:forces:R:3 energy=-2.61535168573417 pbc="F F F"
Se       0.00000000       0.00000000       0.00000000       0.00000000       0.00000000       1.55006003
Se       0.00000000       0.00000000       3.25858586       0.00000000       0.00000000      -1.55006003
2
Properties=species:S:1:pos:R:3:forces:R:3 energy=-2.5248123235711777 pbc="F F F"
Se       0.00000000       0.00000000       0.00000000       0.00000000       0.00000000       1.48871517
Se       0.00000000       0.00000000       3.31818182       0.00000000       0.00000000      -1.48871517
2
Properties=species:S:1:pos:R:3:forces:R:3 energy=-2.4379652659412017 pbc="F F F"
Se       0.00000000       0.00000000       0.00000000       0.00000000       0.00000000       1.42472506
Se       0.00000000       0.00000000       3.37777778       0.00000000       0.00000000      -1.42472506
2
Properties=species:S:1:pos:R:3:forces:R:3 energy=-2.3551696979372547 pbc="F F F"
Se       0.00000000       0.00000000       0.00000000       0.00000000       0.00000000       1.35216546
Se       0.00000000       0.00000000       3.43737374       0.00000000       0.00000000      -1.35216546
2
Properties=species:S:1:pos:R:3:forces:R:3 energy=-2.2769952370629216 pbc="F F F"
Se       0.00000000       0.00000000       0.00000000       0.00000000       0.00000000       1.26975453
Se       0.00000000       0.00000000       3.49696970       0.00000000       0.00000000      -1.26975453
2
Properties=species:S:1:pos:R:3:forces:R:3 energy=-2.2039830893331738 pbc="F F F"
Se       0.00000000       0.00000000       0.00000000       0.00000000       0.00000000       1.17940927
Se       0.00000000       0.00000000       3.55656566       0.00000000       0.00000000      -1.17940927
2
Properties=species:S:1:pos:R:3:forces:R:3 energy=-2.136505400487711 pbc="F F F"
Se       0.00000000       0.00000000       0.00000000       0.00000000       0.00000000       1.08472002
Se       0.00000000       0.00000000       3.61616162       0.00000000       0.00000000      -1.08472002
2
Properties=species:S:1:pos:R:3:forces:R:3 energy=-2.074701700432571 pbc="F F F"
Se       0.00000000       0.00000000       0.00000000       0.00000000       0.00000000       0.98961103
Se       0.00000000       0.00000000       3.67575758       0.00000000       0.00000000      -0.98961103
2
Properties=species:S:1:pos:R:3:forces:R:3 energy=-2.0184944194547025 pbc="F F F"
Se       0.00000000       0.00000000       0.00000000       0.00000000       0.00000000       0.89737576
Se       0.00000000       0.00000000       3.73535354       0.00000000       0.00000000      -0.89737576
2
Properties=species:S:1:pos:R:3:forces:R:3 energy=-1.9676401228738942 pbc="F F F"
Se       0.00000000       0.00000000       0.00000000       0.00000000       0.00000000       0.81020212
Se       0.00000000       0.00000000       3.79494949       0.00000000       0.00000000      -0.81020212
2
Properties=species:S:1:pos:R:3:forces:R:3 energy=-1.9218036528852334 pbc="F F F"
Se       0.00000000       0.00000000       0.00000000       0.00000000       0.00000000       0.72908002
Se       0.00000000       0.00000000       3.85454545       0.00000000       0.00000000      -0.72908002
2
Properties=species:S:1:pos:R:3:forces:R:3 energy=-1.8806185890916673 pbc="F F F"
Se       0.00000000       0.00000000       0.00000000       0.00000000       0.00000000       0.65406519
Se       0.00000000       0.00000000       3.91414141       0.00000000       0.00000000      -0.65406519
2
Properties=species:S:1:pos:R:3:forces:R:3 energy=-1.8437322965282084 pbc="F F F"
Se       0.00000000       0.00000000       0.00000000       0.00000000       0.00000000       0.58467549
Se       0.00000000       0.00000000       3.97373737       0.00000000       0.00000000      -0.58467549
2
Properties=species:S:1:pos:R:3:forces:R:3 energy=-1.8108294602410937 pbc="F F F"
Se       0.00000000       0.00000000       0.00000000       0.00000000       0.00000000       0.52034497
Se       0.00000000       0.00000000       4.03333333       0.00000000       0.00000000      -0.52034497
2
Properties=species:S:1:pos:R:3:forces:R:3 energy=-1.7816181025389066 pbc="F F F"
Se       0.00000000       0.00000000       0.00000000       0.00000000       0.00000000       0.46072748
Se       0.00000000       0.00000000       4.09292929       0.00000000       0.00000000      -0.46072748
2
Properties=species:S:1:pos:R:3:forces:R:3 energy=-1.7558201314445763 pbc="F F F"
Se       0.00000000       0.00000000       0.00000000       0.00000000       0.00000000       0.40584743
Se       0.00000000       0.00000000       4.15252525       0.00000000       0.00000000      -0.40584743
2
Properties=species:S:1:pos:R:3:forces:R:3 energy=-1.7331441403865153 pbc="F F F"
Se       0.00000000       0.00000000       0.00000000       0.00000000       0.00000000       0.35603541
Se       0.00000000       0.00000000       4.21212121       0.00000000       0.00000000      -0.35603541
2
Properties=species:S:1:pos:R:3:forces:R:3 energy=-1.7132747403831 pbc="F F F"
Se       0.00000000       0.00000000       0.00000000       0.00000000       0.00000000       0.31170270
Se       0.00000000       0.00000000       4.27171717       0.00000000       0.00000000      -0.31170270
2
Properties=species:S:1:pos:R:3:forces:R:3 energy=-1.6958776717869206 pbc="F F F"
Se       0.00000000       0.00000000       0.00000000       0.00000000       0.00000000       0.27309173
Se       0.00000000       0.00000000       4.33131313       0.00000000       0.00000000      -0.27309173
2
Properties=species:S:1:pos:R:3:forces:R:3 energy=-1.6806130305962366 pbc="F F F"
Se       0.00000000       0.00000000       0.00000000       0.00000000       0.00000000       0.24007988
Se       0.00000000       0.00000000       4.39090909       0.00000000       0.00000000      -0.24007988
2
Properties=species:S:1:pos:R:3:forces:R:3 energy=-1.667159887757115 pbc="F F F"
Se       0.00000000       0.00000000       0.00000000       0.00000000       0.00000000       0.21219248
Se       0.00000000       0.00000000       4.45050505       0.00000000       0.00000000      -0.21219248
2
Properties=species:S:1:pos:R:3:forces:R:3 energy=-1.655232965792679 pbc="F F F"
Se       0.00000000       0.00000000       0.00000000       0.00000000       0.00000000       0.18875508
Se       0.00000000       0.00000000       4.51010101       0.00000000       0.00000000      -0.18875508
2
Properties=species:S:1:pos:R:3:forces:R:3 energy=-1.6445865109371305 pbc="F F F"
Se       0.00000000       0.00000000       0.00000000       0.00000000       0.00000000       0.16910680
Se       0.00000000       0.00000000       4.56969697       0.00000000       0.00000000      -0.16910680
2
Properties=species:S:1:pos:R:3:forces:R:3 energy=-1.635011471710579 pbc="F F F"
Se       0.00000000       0.00000000       0.00000000       0.00000000       0.00000000       0.15274063
Se       0.00000000       0.00000000       4.62929293       0.00000000       0.00000000      -0.15274063
2
Properties=species:S:1:pos:R:3:forces:R:3 energy=-1.6263234445255963 pbc="F F F"
Se       0.00000000       0.00000000       0.00000000       0.00000000       0.00000000       0.13929069
Se       0.00000000       0.00000000       4.68888889       0.00000000       0.00000000      -0.13929069
2
Properties=species:S:1:pos:R:3:forces:R:3 energy=-1.618357832039766 pbc="F F F"
Se       0.00000000       0.00000000       0.00000000       0.00000000       0.00000000       0.12842178
Se       0.00000000       0.00000000       4.74848485       0.00000000       0.00000000      -0.12842178
2
Properties=species:S:1:pos:R:3:forces:R:3 energy=-1.6109735235965057 pbc="F F F"
Se       0.00000000       0.00000000       0.00000000       0.00000000       0.00000000       0.11972034
Se       0.00000000       0.00000000       4.80808081       0.00000000       0.00000000      -0.11972034
2
Properties=species:S:1:pos:R:3:forces:R:3 energy=-1.6040552750351191 pbc="F F F"
Se       0.00000000       0.00000000       0.00000000       0.00000000       0.00000000       0.11267458
Se       0.00000000       0.00000000       4.86767677       0.00000000       0.00000000      -0.11267458
2
Properties=species:S:1:pos:R:3:forces:R:3 energy=-1.5975215733360868 pbc="F F F"
Se       0.00000000       0.00000000       0.00000000       0.00000000       0.00000000       0.10673189
Se       0.00000000       0.00000000       4.92727273       0.00000000       0.00000000      -0.10673189
2
Properties=species:S:1:pos:R:3:forces:R:3 energy=-1.5913215894486012 pbc="F F F"
Se       0.00000000       0.00000000       0.00000000       0.00000000       0.00000000       0.10139654
Se       0.00000000       0.00000000       4.98686869       0.00000000       0.00000000      -0.10139654
2
Properties=species:S:1:pos:R:3:forces:R:3 energy=-1.5854322637906386 pbc="F F F"
Se       0.00000000       0.00000000       0.00000000       0.00000000       0.00000000       0.09627935
Se       0.00000000       0.00000000       5.04646465       0.00000000       0.00000000      -0.09627935
2
Properties=species:S:1:pos:R:3:forces:R:3 energy=-1.5798477021658774 pbc="F F F"
Se       0.00000000       0.00000000       0.00000000       0.00000000       0.00000000       0.09109839
Se       0.00000000       0.00000000       5.10606061       0.00000000       0.00000000      -0.09109839
2
Properties=species:S:1:pos:R:3:forces:R:3 energy=-1.5745784284137805 pbc="F F F"
Se       0.00000000       0.00000000       0.00000000       0.00000000       0.00000000       0.08564952
Se       0.00000000       0.00000000       5.16565657       0.00000000       0.00000000      -0.08564952
2
Properties=species:S:1:pos:R:3:forces:R:3 energy=-1.5696468734635252 pbc="F F F"
Se       0.00000000       0.00000000       0.00000000       0.00000000       0.00000000       0.07977733
Se       0.00000000       0.00000000       5.22525253       0.00000000       0.00000000      -0.07977733
2
Properties=species:S:1:pos:R:3:forces:R:3 energy=-1.565080598619476 pbc="F F F"
Se       0.00000000       0.00000000       0.00000000       0.00000000       0.00000000       0.07337619
Se       0.00000000       0.00000000       5.28484848       0.00000000       0.00000000      -0.07337619
2
Properties=species:S:1:pos:R:3:forces:R:3 energy=-1.56091223416465 pbc="F F F"
Se       0.00000000       0.00000000       0.00000000       0.00000000       0.00000000       0.06641341
Se       0.00000000       0.00000000       5.34444444       0.00000000       0.00000000      -0.06641341
2
Properties=species:S:1:pos:R:3:forces:R:3 energy=-1.5571743604888646 pbc="F F F"
Se       0.00000000       0.00000000       0.00000000       0.00000000       0.00000000       0.05895487
Se       0.00000000       0.00000000       5.40404040       0.00000000       0.00000000      -0.05895487
2
Properties=species:S:1:pos:R:3:forces:R:3 energy=-1.5538913119501152 pbc="F F F"
Se       0.00000000       0.00000000       0.00000000       0.00000000       0.00000000       0.05116338
Se       0.00000000       0.00000000       5.46363636       0.00000000       0.00000000      -0.05116338
2
Properties=species:S:1:pos:R:3:forces:R:3 energy=-1.5510788370657043 pbc="F F F"
Se       0.00000000       0.00000000       0.00000000       0.00000000       0.00000000       0.04326964
Se       0.00000000       0.00000000       5.52323232       0.00000000       0.00000000      -0.04326964
2
Properties=species:S:1:pos:R:3:forces:R:3 energy=-1.548731600543773 pbc="F F F"
Se       0.00000000       0.00000000       0.00000000       0.00000000       0.00000000       0.03554230
Se       0.00000000       0.00000000       5.58282828       0.00000000       0.00000000      -0.03554230
2
Properties=species:S:1:pos:R:3:forces:R:3 energy=-1.5468342630156062 pbc="F F F"
Se       0.00000000       0.00000000       0.00000000       0.00000000       0.00000000       0.02822787
Se       0.00000000       0.00000000       5.64242424       0.00000000       0.00000000      -0.02822787
2
Properties=species:S:1:pos:R:3:forces:R:3 energy=-1.5453535308391657 pbc="F F F"
Se       0.00000000       0.00000000       0.00000000       0.00000000       0.00000000       0.02155177
Se       0.00000000       0.00000000       5.70202020       0.00000000       0.00000000      -0.02155177
2
Properties=species:S:1:pos:R:3:forces:R:3 energy=-1.5442492322675965 pbc="F F F"
Se       0.00000000       0.00000000       0.00000000       0.00000000       0.00000000       0.01569352
Se       0.00000000       0.00000000       5.76161616       0.00000000       0.00000000      -0.01569352
2
Properties=species:S:1:pos:R:3:forces:R:3 energy=-1.5434643086206372 pbc="F F F"
Se       0.00000000       0.00000000       0.00000000       0.00000000       0.00000000       0.01080825
Se       0.00000000       0.00000000       5.82121212       0.00000000       0.00000000      -0.01080825
2
Properties=species:S:1:pos:R:3:forces:R:3 energy=-1.5429391336545664 pbc="F F F"
Se       0.00000000       0.00000000       0.00000000       0.00000000       0.00000000       0.00704771
Se       0.00000000       0.00000000       5.88080808       0.00000000       0.00000000      -0.00704771
2
Properties=species:S:1:pos:R:3:forces:R:3 energy=-1.542598391036885 pbc="F F F"
Se       0.00000000       0.00000000       0.00000000       0.00000000       0.00000000       0.00457267
Se       0.00000000       0.00000000       5.94040404       0.00000000       0.00000000      -0.00457267
2
Properties=species:S:1:pos:R:3:forces:R:3 energy=-1.5423645552914582 pbc="F F F"
Se       0.00000000       0.00000000       0.00000000       0.00000000       0.00000000       0.00354915
Se       0.00000000       0.00000000       6.00000000       0.00000000       0.00000000      -0.00354915
