2
Properties=species:S:1:pos:R:3:forces:R:3 energy=1496.2990646463472 pbc="F F F"
Si       0.00000000       0.00000000       0.00000000       0.00000000       0.00000000  -20545.31640625
Si       0.00000000       0.00000000       0.18000000       0.00000000       0.00000000   20545.31640625
2
Properties=species:S:1:pos:R:3:forces:R:3 energy=730.103935251816 pbc="F F F"
Si       0.00000000       0.00000000       0.00000000       0.00000000       0.00000000   -7910.18750000
Si       0.00000000       0.00000000       0.23878788       0.00000000       0.00000000    7910.18750000
2
Properties=species:S:1:pos:R:3:forces:R:3 energy=413.37834931431604 pbc="F F F"
Si       0.00000000       0.00000000       0.00000000       0.00000000       0.00000000   -3551.62475586
Si       0.00000000       0.00000000       0.29757576       0.00000000       0.00000000    3551.62475586
2
Properties=species:S:1:pos:R:3:forces:R:3 energy=264.0770187542454 pbc="F F F"
Si       0.00000000       0.00000000       0.00000000       0.00000000       0.00000000   -1770.31555176
Si       0.00000000       0.00000000       0.35636364       0.00000000       0.00000000    1770.31555176
2
Properties=species:S:1:pos:R:3:forces:R:3 energy=186.69557955793232 pbc="F F F"
Si       0.00000000       0.00000000       0.00000000       0.00000000       0.00000000    -964.66400146
Si       0.00000000       0.00000000       0.41515152       0.00000000       0.00000000     964.66400146
2
Properties=species:S:1:pos:R:3:forces:R:3 energy=141.9276962888293 pbc="F F F"
Si       0.00000000       0.00000000       0.00000000       0.00000000       0.00000000    -617.86755371
Si       0.00000000       0.00000000       0.47393939       0.00000000       0.00000000     617.86755371
2
Properties=species:S:1:pos:R:3:forces:R:3 energy=108.60526286466694 pbc="F F F"
Si       0.00000000       0.00000000       0.00000000       0.00000000       0.00000000    -533.72064209
Si       0.00000000       0.00000000       0.53272727       0.00000000       0.00000000     533.72064209
2
Properties=species:S:1:pos:R:3:forces:R:3 energy=80.97511311205737 pbc="F F F"
Si       0.00000000       0.00000000       0.00000000       0.00000000       0.00000000    -372.61227417
Si       0.00000000       0.00000000       0.59151515       0.00000000       0.00000000     372.61227417
2
Properties=species:S:1:pos:R:3:forces:R:3 energy=60.530742994337444 pbc="F F F"
Si       0.00000000       0.00000000       0.00000000       0.00000000       0.00000000    -355.11944580
Si       0.00000000       0.00000000       0.65030303       0.00000000       0.00000000     355.11944580
2
Properties=species:S:1:pos:R:3:forces:R:3 energy=46.98310909766478 pbc="F F F"
Si       0.00000000       0.00000000       0.00000000       0.00000000       0.00000000      -3.11063242
Si       0.00000000       0.00000000       0.70909091       0.00000000       0.00000000       3.11063242
2
Properties=species:S:1:pos:R:3:forces:R:3 energy=45.47132585577516 pbc="F F F"
Si       0.00000000       0.00000000       0.00000000       0.00000000       0.00000000     -59.16426086
Si       0.00000000       0.00000000       0.76787879       0.00000000       0.00000000      59.16426086
2
Properties=species:S:1:pos:R:3:forces:R:3 energy=41.1298308645498 pbc="F F F"
Si       0.00000000       0.00000000       0.00000000       0.00000000       0.00000000     -93.09715271
Si       0.00000000       0.00000000       0.82666667       0.00000000       0.00000000      93.09715271
2
Properties=species:S:1:pos:R:3:forces:R:3 energy=34.3706153067299 pbc="F F F"
Si       0.00000000       0.00000000       0.00000000       0.00000000       0.00000000    -127.01702881
Si       0.00000000       0.00000000       0.88545455       0.00000000       0.00000000     127.01702881
2
Properties=species:S:1:pos:R:3:forces:R:3 energy=27.58491460357005 pbc="F F F"
Si       0.00000000       0.00000000       0.00000000       0.00000000       0.00000000    -101.24295044
Si       0.00000000       0.00000000       0.94424242       0.00000000       0.00000000     101.24295044
2
Properties=species:S:1:pos:R:3:forces:R:3 energy=22.337038927125267 pbc="F F F"
Si       0.00000000       0.00000000       0.00000000       0.00000000       0.00000000     -80.90524292
Si       0.00000000       0.00000000       1.00303030       0.00000000       0.00000000      80.90524292
2
Properties=species:S:1:pos:R:3:forces:R:3 energy=17.646872494598586 pbc="F F F"
Si       0.00000000       0.00000000       0.00000000       0.00000000       0.00000000     -78.77895355
Si       0.00000000       0.00000000       1.06181818       0.00000000       0.00000000      78.77895355
2
Properties=species:S:1:pos:R:3:forces:R:3 energy=13.19953697529341 pbc="F F F"
Si       0.00000000       0.00000000       0.00000000       0.00000000       0.00000000     -72.14051056
Si       0.00000000       0.00000000       1.12060606       0.00000000       0.00000000      72.14051056
2
Properties=species:S:1:pos:R:3:forces:R:3 energy=9.23946212225437 pbc="F F F"
Si       0.00000000       0.00000000       0.00000000       0.00000000       0.00000000     -61.51554489
Si       0.00000000       0.00000000       1.17939394       0.00000000       0.00000000      61.51554489
2
Properties=species:S:1:pos:R:3:forces:R:3 energy=6.027632549494978 pbc="F F F"
Si       0.00000000       0.00000000       0.00000000       0.00000000       0.00000000     -47.98633957
Si       0.00000000       0.00000000       1.23818182       0.00000000       0.00000000      47.98633957
2
Properties=species:S:1:pos:R:3:forces:R:3 energy=3.5441748565153754 pbc="F F F"
Si       0.00000000       0.00000000       0.00000000       0.00000000       0.00000000     -36.84692383
Si       0.00000000       0.00000000       1.29696970       0.00000000       0.00000000      36.84692383
2
Properties=species:S:1:pos:R:3:forces:R:3 energy=1.6747641531674926 pbc="F F F"
Si       0.00000000       0.00000000       0.00000000       0.00000000       0.00000000     -26.89230919
Si       0.00000000       0.00000000       1.35575758       0.00000000       0.00000000      26.89230919
2
Properties=species:S:1:pos:R:3:forces:R:3 energy=0.348556306369703 pbc="F F F"
Si       0.00000000       0.00000000       0.00000000       0.00000000       0.00000000     -18.68852043
Si       0.00000000       0.00000000       1.41454545       0.00000000       0.00000000      18.68852043
2
Properties=species:S:1:pos:R:3:forces:R:3 energy=-0.5879180856814997 pbc="F F F"
Si       0.00000000       0.00000000       0.00000000       0.00000000       0.00000000     -13.73110008
Si       0.00000000       0.00000000       1.47333333       0.00000000       0.00000000      13.73110008
2
Properties=species:S:1:pos:R:3:forces:R:3 energy=-1.3203105380637299 pbc="F F F"
Si       0.00000000       0.00000000       0.00000000       0.00000000       0.00000000     -11.52082920
Si       0.00000000       0.00000000       1.53212121       0.00000000       0.00000000      11.52082920
2
Properties=species:S:1:pos:R:3:forces:R:3 energy=-1.96734042032195 pbc="F F F"
Si       0.00000000       0.00000000       0.00000000       0.00000000       0.00000000     -10.59981537
Si       0.00000000       0.00000000       1.59090909       0.00000000       0.00000000      10.59981537
2
Properties=species:S:1:pos:R:3:forces:R:3 energy=-2.5713583301006993 pbc="F F F"
Si       0.00000000       0.00000000       0.00000000       0.00000000       0.00000000      -9.94166660
Si       0.00000000       0.00000000       1.64969697       0.00000000       0.00000000       9.94166660
2
Properties=species:S:1:pos:R:3:forces:R:3 energy=-3.132231726172814 pbc="F F F"
Si       0.00000000       0.00000000       0.00000000       0.00000000       0.00000000      -9.08961678
Si       0.00000000       0.00000000       1.70848485       0.00000000       0.00000000       9.08961678
2
Properties=species:S:1:pos:R:3:forces:R:3 energy=-3.6338414453473016 pbc="F F F"
Si       0.00000000       0.00000000       0.00000000       0.00000000       0.00000000      -7.92658806
Si       0.00000000       0.00000000       1.76727273       0.00000000       0.00000000       7.92658806
2
Properties=species:S:1:pos:R:3:forces:R:3 energy=-4.059870901178386 pbc="F F F"
Si       0.00000000       0.00000000       0.00000000       0.00000000       0.00000000      -6.54519224
Si       0.00000000       0.00000000       1.82606061       0.00000000       0.00000000       6.54519224
2
Properties=species:S:1:pos:R:3:forces:R:3 energy=-4.402554853725638 pbc="F F F"
Si       0.00000000       0.00000000       0.00000000       0.00000000       0.00000000      -5.11802721
Si       0.00000000       0.00000000       1.88484848       0.00000000       0.00000000       5.11802721
2
Properties=species:S:1:pos:R:3:forces:R:3 energy=-4.662928610822112 pbc="F F F"
Si       0.00000000       0.00000000       0.00000000       0.00000000       0.00000000      -3.75346375
Si       0.00000000       0.00000000       1.94363636       0.00000000       0.00000000       3.75346375
2
Properties=species:S:1:pos:R:3:forces:R:3 energy=-4.845346632053422 pbc="F F F"
Si       0.00000000       0.00000000       0.00000000       0.00000000       0.00000000      -2.46390343
Si       0.00000000       0.00000000       2.00242424       0.00000000       0.00000000       2.46390343
2
Properties=species:S:1:pos:R:3:forces:R:3 energy=-4.954049161002587 pbc="F F F"
Si       0.00000000       0.00000000       0.00000000       0.00000000       0.00000000      -1.24895310
Si       0.00000000       0.00000000       2.06121212       0.00000000       0.00000000       1.24895310
2
Properties=species:S:1:pos:R:3:forces:R:3 energy=-4.994481795225705 pbc="F F F"
Si       0.00000000       0.00000000       0.00000000       0.00000000       0.00000000      -0.15153757
Si       0.00000000       0.00000000       2.12000000       0.00000000       0.00000000       0.15153757
2
Properties=species:S:1:pos:R:3:forces:R:3 energy=-4.9753899197775375 pbc="F F F"
Si       0.00000000       0.00000000       0.00000000       0.00000000       0.00000000       0.76703840
Si       0.00000000       0.00000000       2.17878788       0.00000000       0.00000000      -0.76703840
2
Properties=species:S:1:pos:R:3:forces:R:3 energy=-4.908545189584203 pbc="F F F"
Si       0.00000000       0.00000000       0.00000000       0.00000000       0.00000000       1.47016430
Si       0.00000000       0.00000000       2.23757576       0.00000000       0.00000000      -1.47016430
2
Properties=species:S:1:pos:R:3:forces:R:3 energy=-4.806762544268076 pbc="F F F"
Si       0.00000000       0.00000000       0.00000000       0.00000000       0.00000000       1.95823526
Si       0.00000000       0.00000000       2.29636364       0.00000000       0.00000000      -1.95823526
2
Properties=species:S:1:pos:R:3:forces:R:3 energy=-4.682058819770078 pbc="F F F"
Si       0.00000000       0.00000000       0.00000000       0.00000000       0.00000000       2.25507474
Si       0.00000000       0.00000000       2.35515152       0.00000000       0.00000000      -2.25507474
2
Properties=species:S:1:pos:R:3:forces:R:3 energy=-4.544712789613395 pbc="F F F"
Si       0.00000000       0.00000000       0.00000000       0.00000000       0.00000000       2.39425159
Si       0.00000000       0.00000000       2.41393939       0.00000000       0.00000000      -2.39425159
2
Properties=species:S:1:pos:R:3:forces:R:3 energy=-4.402887365018952 pbc="F F F"
Si       0.00000000       0.00000000       0.00000000       0.00000000       0.00000000       2.41433859
Si       0.00000000       0.00000000       2.47272727       0.00000000       0.00000000      -2.41433859
2
Properties=species:S:1:pos:R:3:forces:R:3 energy=-4.262339156791891 pbc="F F F"
Si       0.00000000       0.00000000       0.00000000       0.00000000       0.00000000       2.35818100
Si       0.00000000       0.00000000       2.53151515       0.00000000       0.00000000      -2.35818100
2
Properties=species:S:1:pos:R:3:forces:R:3 energy=-4.126286506240424 pbc="F F F"
Si       0.00000000       0.00000000       0.00000000       0.00000000       0.00000000       2.26785183
Si       0.00000000       0.00000000       2.59030303       0.00000000       0.00000000      -2.26785183
2
Properties=species:S:1:pos:R:3:forces:R:3 energy=-3.9957319683679735 pbc="F F F"
Si       0.00000000       0.00000000       0.00000000       0.00000000       0.00000000       2.17507267
Si       0.00000000       0.00000000       2.64909091       0.00000000       0.00000000      -2.17507267
2
Properties=species:S:1:pos:R:3:forces:R:3 energy=-3.8702831930826456 pbc="F F F"
Si       0.00000000       0.00000000       0.00000000       0.00000000       0.00000000       2.09545326
Si       0.00000000       0.00000000       2.70787879       0.00000000       0.00000000      -2.09545326
2
Properties=species:S:1:pos:R:3:forces:R:3 energy=-3.7490419074562067 pbc="F F F"
Si       0.00000000       0.00000000       0.00000000       0.00000000       0.00000000       2.03167152
Si       0.00000000       0.00000000       2.76666667       0.00000000       0.00000000      -2.03167152
2
Properties=species:S:1:pos:R:3:forces:R:3 energy=-3.63118456555395 pbc="F F F"
Si       0.00000000       0.00000000       0.00000000       0.00000000       0.00000000       1.97914875
Si       0.00000000       0.00000000       2.82545455       0.00000000       0.00000000      -1.97914875
2
Properties=species:S:1:pos:R:3:forces:R:3 energy=-3.5162766789267073 pbc="F F F"
Si       0.00000000       0.00000000       0.00000000       0.00000000       0.00000000       1.93008101
Si       0.00000000       0.00000000       2.88424242       0.00000000       0.00000000      -1.93008101
2
Properties=species:S:1:pos:R:3:forces:R:3 energy=-3.404290986213024 pbc="F F F"
Si       0.00000000       0.00000000       0.00000000       0.00000000       0.00000000       1.87933707
Si       0.00000000       0.00000000       2.94303030       0.00000000       0.00000000      -1.87933707
2
Properties=species:S:1:pos:R:3:forces:R:3 energy=-3.295344720533304 pbc="F F F"
Si       0.00000000       0.00000000       0.00000000       0.00000000       0.00000000       1.82702351
Si       0.00000000       0.00000000       3.00181818       0.00000000       0.00000000      -1.82702351
2
Properties=species:S:1:pos:R:3:forces:R:3 energy=-3.1894603937536785 pbc="F F F"
Si       0.00000000       0.00000000       0.00000000       0.00000000       0.00000000       1.77552319
Si       0.00000000       0.00000000       3.06060606       0.00000000       0.00000000      -1.77552319
2
Properties=species:S:1:pos:R:3:forces:R:3 energy=-3.086540796956551 pbc="F F F"
Si       0.00000000       0.00000000       0.00000000       0.00000000       0.00000000       1.72627330
Si       0.00000000       0.00000000       3.11939394       0.00000000       0.00000000      -1.72627330
2
Properties=species:S:1:pos:R:3:forces:R:3 energy=-2.98646099862094 pbc="F F F"
Si       0.00000000       0.00000000       0.00000000       0.00000000       0.00000000       1.67857349
Si       0.00000000       0.00000000       3.17818182       0.00000000       0.00000000      -1.67857349
2
Properties=species:S:1:pos:R:3:forces:R:3 energy=-2.8891982196168344 pbc="F F F"
Si       0.00000000       0.00000000       0.00000000       0.00000000       0.00000000       1.62997663
Si       0.00000000       0.00000000       3.23696970       0.00000000       0.00000000      -1.62997663
2
Properties=species:S:1:pos:R:3:forces:R:3 energy=-2.7948943387758076 pbc="F F F"
Si       0.00000000       0.00000000       0.00000000       0.00000000       0.00000000       1.57735097
Si       0.00000000       0.00000000       3.29575758       0.00000000       0.00000000      -1.57735097
2
Properties=species:S:1:pos:R:3:forces:R:3 energy=-2.703872580560384 pbc="F F F"
Si       0.00000000       0.00000000       0.00000000       0.00000000       0.00000000       1.51801085
Si       0.00000000       0.00000000       3.35454545       0.00000000       0.00000000      -1.51801085
2
Properties=species:S:1:pos:R:3:forces:R:3 energy=-2.616572814450537 pbc="F F F"
Si       0.00000000       0.00000000       0.00000000       0.00000000       0.00000000       1.45054233
Si       0.00000000       0.00000000       3.41333333       0.00000000       0.00000000      -1.45054233
2
Properties=species:S:1:pos:R:3:forces:R:3 energy=-2.533479079375679 pbc="F F F"
Si       0.00000000       0.00000000       0.00000000       0.00000000       0.00000000       1.37517917
Si       0.00000000       0.00000000       3.47212121       0.00000000       0.00000000      -1.37517917
2
Properties=species:S:1:pos:R:3:forces:R:3 energy=-2.4550079529746403 pbc="F F F"
Si       0.00000000       0.00000000       0.00000000       0.00000000       0.00000000       1.29365957
Si       0.00000000       0.00000000       3.53090909       0.00000000       0.00000000      -1.29365957
2
Properties=species:S:1:pos:R:3:forces:R:3 energy=-2.381443226408979 pbc="F F F"
Si       0.00000000       0.00000000       0.00000000       0.00000000       0.00000000       1.20869625
Si       0.00000000       0.00000000       3.58969697       0.00000000       0.00000000      -1.20869625
2
Properties=species:S:1:pos:R:3:forces:R:3 energy=-2.312902143127498 pbc="F F F"
Si       0.00000000       0.00000000       0.00000000       0.00000000       0.00000000       1.12326443
Si       0.00000000       0.00000000       3.64848485       0.00000000       0.00000000      -1.12326443
2
Properties=species:S:1:pos:R:3:forces:R:3 energy=-2.2493341805988507 pbc="F F F"
Si       0.00000000       0.00000000       0.00000000       0.00000000       0.00000000       1.03990877
Si       0.00000000       0.00000000       3.70727273       0.00000000       0.00000000      -1.03990877
2
Properties=species:S:1:pos:R:3:forces:R:3 energy=-2.1905601382872275 pbc="F F F"
Si       0.00000000       0.00000000       0.00000000       0.00000000       0.00000000       0.96030593
Si       0.00000000       0.00000000       3.76606061       0.00000000       0.00000000      -0.96030593
2
Properties=species:S:1:pos:R:3:forces:R:3 energy=-2.1363380077044525 pbc="F F F"
Si       0.00000000       0.00000000       0.00000000       0.00000000       0.00000000       0.88512683
Si       0.00000000       0.00000000       3.82484848       0.00000000       0.00000000      -0.88512683
2
Properties=species:S:1:pos:R:3:forces:R:3 energy=-2.086407496495655 pbc="F F F"
Si       0.00000000       0.00000000       0.00000000       0.00000000       0.00000000       0.81415671
Si       0.00000000       0.00000000       3.88363636       0.00000000       0.00000000      -0.81415671
2
Properties=species:S:1:pos:R:3:forces:R:3 energy=-2.0405450334389537 pbc="F F F"
Si       0.00000000       0.00000000       0.00000000       0.00000000       0.00000000       0.74660873
Si       0.00000000       0.00000000       3.94242424       0.00000000       0.00000000      -0.74660873
2
Properties=species:S:1:pos:R:3:forces:R:3 energy=-1.9985782854682528 pbc="F F F"
Si       0.00000000       0.00000000       0.00000000       0.00000000       0.00000000       0.68147653
Si       0.00000000       0.00000000       4.00121212       0.00000000       0.00000000      -0.68147653
2
Properties=species:S:1:pos:R:3:forces:R:3 energy=-1.9603901189222452 pbc="F F F"
Si       0.00000000       0.00000000       0.00000000       0.00000000       0.00000000       0.61789680
Si       0.00000000       0.00000000       4.06000000       0.00000000       0.00000000      -0.61789680
2
Properties=species:S:1:pos:R:3:forces:R:3 energy=-1.9259070972638648 pbc="F F F"
Si       0.00000000       0.00000000       0.00000000       0.00000000       0.00000000       0.55543011
Si       0.00000000       0.00000000       4.11878788       0.00000000       0.00000000      -0.55543011
2
Properties=species:S:1:pos:R:3:forces:R:3 energy=-1.8950611693808779 pbc="F F F"
Si       0.00000000       0.00000000       0.00000000       0.00000000       0.00000000       0.49420232
Si       0.00000000       0.00000000       4.17757576       0.00000000       0.00000000      -0.49420232
2
Properties=species:S:1:pos:R:3:forces:R:3 energy=-1.8677625108746687 pbc="F F F"
Si       0.00000000       0.00000000       0.00000000       0.00000000       0.00000000       0.43491727
Si       0.00000000       0.00000000       4.23636364       0.00000000       0.00000000      -0.43491727
2
Properties=species:S:1:pos:R:3:forces:R:3 energy=-1.843865008051165 pbc="F F F"
Si       0.00000000       0.00000000       0.00000000       0.00000000       0.00000000       0.37869775
Si       0.00000000       0.00000000       4.29515152       0.00000000       0.00000000      -0.37869775
2
Properties=species:S:1:pos:R:3:forces:R:3 energy=-1.8231516415276021 pbc="F F F"
Si       0.00000000       0.00000000       0.00000000       0.00000000       0.00000000       0.32682782
Si       0.00000000       0.00000000       4.35393939       0.00000000       0.00000000      -0.32682782
2
Properties=species:S:1:pos:R:3:forces:R:3 energy=-1.8053307515627306 pbc="F F F"
Si       0.00000000       0.00000000       0.00000000       0.00000000       0.00000000       0.28044748
Si       0.00000000       0.00000000       4.41272727       0.00000000       0.00000000      -0.28044748
2
Properties=species:S:1:pos:R:3:forces:R:3 energy=-1.790054984414298 pbc="F F F"
Si       0.00000000       0.00000000       0.00000000       0.00000000       0.00000000       0.24031629
Si       0.00000000       0.00000000       4.47151515       0.00000000       0.00000000      -0.24031629
2
Properties=species:S:1:pos:R:3:forces:R:3 energy=-1.7769474328515529 pbc="F F F"
Si       0.00000000       0.00000000       0.00000000       0.00000000       0.00000000       0.20667769
Si       0.00000000       0.00000000       4.53030303       0.00000000       0.00000000      -0.20667769
2
Properties=species:S:1:pos:R:3:forces:R:3 energy=-1.765632506609505 pbc="F F F"
Si       0.00000000       0.00000000       0.00000000       0.00000000       0.00000000       0.17926778
Si       0.00000000       0.00000000       4.58909091       0.00000000       0.00000000      -0.17926778
2
Properties=species:S:1:pos:R:3:forces:R:3 energy=-1.7557607500959072 pbc="F F F"
Si       0.00000000       0.00000000       0.00000000       0.00000000       0.00000000       0.15743832
Si       0.00000000       0.00000000       4.64787879       0.00000000       0.00000000      -0.15743832
2
Properties=species:S:1:pos:R:3:forces:R:3 energy=-1.747028845793233 pbc="F F F"
Si       0.00000000       0.00000000       0.00000000       0.00000000       0.00000000       0.14033042
Si       0.00000000       0.00000000       4.70666667       0.00000000       0.00000000      -0.14033042
2
Properties=species:S:1:pos:R:3:forces:R:3 energy=-1.739186474128536 pbc="F F F"
Si       0.00000000       0.00000000       0.00000000       0.00000000       0.00000000       0.12705007
Si       0.00000000       0.00000000       4.76545455       0.00000000       0.00000000      -0.12705007
2
Properties=species:S:1:pos:R:3:forces:R:3 energy=-1.7320316052904883 pbc="F F F"
Si       0.00000000       0.00000000       0.00000000       0.00000000       0.00000000       0.11679204
Si       0.00000000       0.00000000       4.82424242       0.00000000       0.00000000      -0.11679204
2
Properties=species:S:1:pos:R:3:forces:R:3 energy=-1.7254082881058552 pbc="F F F"
Si       0.00000000       0.00000000       0.00000000       0.00000000       0.00000000       0.10890513
Si       0.00000000       0.00000000       4.88303030       0.00000000       0.00000000      -0.10890513
2
Properties=species:S:1:pos:R:3:forces:R:3 energy=-1.7191907076729174 pbc="F F F"
Si       0.00000000       0.00000000       0.00000000       0.00000000       0.00000000       0.10288554
Si       0.00000000       0.00000000       4.94181818       0.00000000       0.00000000      -0.10288554
2
Properties=species:S:1:pos:R:3:forces:R:3 energy=-1.7132825524691093 pbc="F F F"
Si       0.00000000       0.00000000       0.00000000       0.00000000       0.00000000       0.09833020
Si       0.00000000       0.00000000       5.00060606       0.00000000       0.00000000      -0.09833020
2
Properties=species:S:1:pos:R:3:forces:R:3 energy=-1.7076078189806536 pbc="F F F"
Si       0.00000000       0.00000000       0.00000000       0.00000000       0.00000000       0.09486437
Si       0.00000000       0.00000000       5.05939394       0.00000000       0.00000000      -0.09486437
2
Properties=species:S:1:pos:R:3:forces:R:3 energy=-1.7021154545292103 pbc="F F F"
Si       0.00000000       0.00000000       0.00000000       0.00000000       0.00000000       0.09207877
Si       0.00000000       0.00000000       5.11818182       0.00000000       0.00000000      -0.09207877
2
Properties=species:S:1:pos:R:3:forces:R:3 energy=-1.6967777762488865 pbc="F F F"
Si       0.00000000       0.00000000       0.00000000       0.00000000       0.00000000       0.08950522
Si       0.00000000       0.00000000       5.17696970       0.00000000       0.00000000      -0.08950522
2
Properties=species:S:1:pos:R:3:forces:R:3 energy=-1.691597590757474 pbc="F F F"
Si       0.00000000       0.00000000       0.00000000       0.00000000       0.00000000       0.08664220
Si       0.00000000       0.00000000       5.23575758       0.00000000       0.00000000      -0.08664220
2
Properties=species:S:1:pos:R:3:forces:R:3 energy=-1.686605773540704 pbc="F F F"
Si       0.00000000       0.00000000       0.00000000       0.00000000       0.00000000       0.08301941
Si       0.00000000       0.00000000       5.29454545       0.00000000       0.00000000      -0.08301941
2
Properties=species:S:1:pos:R:3:forces:R:3 energy=-1.6818582962236042 pbc="F F F"
Si       0.00000000       0.00000000       0.00000000       0.00000000       0.00000000       0.07828002
Si       0.00000000       0.00000000       5.35333333       0.00000000       0.00000000      -0.07828002
2
Properties=species:S:1:pos:R:3:forces:R:3 energy=-1.6774276347901396 pbc="F F F"
Si       0.00000000       0.00000000       0.00000000       0.00000000       0.00000000       0.07224613
Si       0.00000000       0.00000000       5.41212121       0.00000000       0.00000000      -0.07224613
2
Properties=species:S:1:pos:R:3:forces:R:3 energy=-1.6733884850593115 pbc="F F F"
Si       0.00000000       0.00000000       0.00000000       0.00000000       0.00000000       0.06495951
Si       0.00000000       0.00000000       5.47090909       0.00000000       0.00000000      -0.06495951
2
Properties=species:S:1:pos:R:3:forces:R:3 energy=-1.6698094734717766 pbc="F F F"
Si       0.00000000       0.00000000       0.00000000       0.00000000       0.00000000       0.05665377
Si       0.00000000       0.00000000       5.52969697       0.00000000       0.00000000      -0.05665377
2
Properties=species:S:1:pos:R:3:forces:R:3 energy=-1.6667398080252824 pbc="F F F"
Si       0.00000000       0.00000000       0.00000000       0.00000000       0.00000000       0.04771576
Si       0.00000000       0.00000000       5.58848485       0.00000000       0.00000000      -0.04771576
2
Properties=species:S:1:pos:R:3:forces:R:3 energy=-1.6642036960289042 pbc="F F F"
Si       0.00000000       0.00000000       0.00000000       0.00000000       0.00000000       0.03862304
Si       0.00000000       0.00000000       5.64727273       0.00000000       0.00000000      -0.03862304
2
Properties=species:S:1:pos:R:3:forces:R:3 energy=-1.662192597083134 pbc="F F F"
Si       0.00000000       0.00000000       0.00000000       0.00000000       0.00000000       0.02987199
Si       0.00000000       0.00000000       5.70606061       0.00000000       0.00000000      -0.02987199
2
Properties=species:S:1:pos:R:3:forces:R:3 energy=-1.6606730089056119 pbc="F F F"
Si       0.00000000       0.00000000       0.00000000       0.00000000       0.00000000       0.02192884
Si       0.00000000       0.00000000       5.76484848       0.00000000       0.00000000      -0.02192884
2
Properties=species:S:1:pos:R:3:forces:R:3 energy=-1.6595888340938958 pbc="F F F"
Si       0.00000000       0.00000000       0.00000000       0.00000000       0.00000000       0.01520405
Si       0.00000000       0.00000000       5.82363636       0.00000000       0.00000000      -0.01520405
2
Properties=species:S:1:pos:R:3:forces:R:3 energy=-1.6588568573000575 pbc="F F F"
Si       0.00000000       0.00000000       0.00000000       0.00000000       0.00000000       0.01002555
Si       0.00000000       0.00000000       5.88242424       0.00000000       0.00000000      -0.01002555
2
Properties=species:S:1:pos:R:3:forces:R:3 energy=-1.6583753496823308 pbc="F F F"
Si       0.00000000       0.00000000       0.00000000       0.00000000       0.00000000       0.00664652
Si       0.00000000       0.00000000       5.94121212       0.00000000       0.00000000      -0.00664652
2
Properties=species:S:1:pos:R:3:forces:R:3 energy=-1.658035731616598 pbc="F F F"
Si       0.00000000       0.00000000       0.00000000       0.00000000       0.00000000       0.00526128
Si       0.00000000       0.00000000       6.00000000       0.00000000       0.00000000      -0.00526128
