2
Properties=species:S:1:pos:R:3:forces:R:3 energy=1496.2991867103242 pbc="F F F"
Si       0.00000000       0.00000000       0.00000000       0.00000000       0.00000000  -20545.31835938
Si       0.00000000       0.00000000       0.18000000       0.00000000       0.00000000   20545.31835938
2
Properties=species:S:1:pos:R:3:forces:R:3 energy=730.1038131751678 pbc="F F F"
Si       0.00000000       0.00000000       0.00000000       0.00000000       0.00000000   -7910.18750000
Si       0.00000000       0.00000000       0.23878788       0.00000000       0.00000000    7910.18750000
2
Properties=species:S:1:pos:R:3:forces:R:3 energy=413.37862396935134 pbc="F F F"
Si       0.00000000       0.00000000       0.00000000       0.00000000       0.00000000   -3551.62475586
Si       0.00000000       0.00000000       0.29757576       0.00000000       0.00000000    3551.62475586
2
Properties=species:S:1:pos:R:3:forces:R:3 energy=264.0767440928745 pbc="F F F"
Si       0.00000000       0.00000000       0.00000000       0.00000000       0.00000000   -1770.31567383
Si       0.00000000       0.00000000       0.35636364       0.00000000       0.00000000    1770.31567383
2
Properties=species:S:1:pos:R:3:forces:R:3 energy=186.69585421296762 pbc="F F F"
Si       0.00000000       0.00000000       0.00000000       0.00000000       0.00000000    -964.66406250
Si       0.00000000       0.00000000       0.41515152       0.00000000       0.00000000     964.66406250
2
Properties=species:S:1:pos:R:3:forces:R:3 energy=141.92771154128272 pbc="F F F"
Si       0.00000000       0.00000000       0.00000000       0.00000000       0.00000000    -617.86730957
Si       0.00000000       0.00000000       0.47393939       0.00000000       0.00000000     617.86730957
2
Properties=species:S:1:pos:R:3:forces:R:3 energy=108.60522471452647 pbc="F F F"
Si       0.00000000       0.00000000       0.00000000       0.00000000       0.00000000    -533.72015381
Si       0.00000000       0.00000000       0.53272727       0.00000000       0.00000000     533.72015381
2
Properties=species:S:1:pos:R:3:forces:R:3 energy=80.97513599707314 pbc="F F F"
Si       0.00000000       0.00000000       0.00000000       0.00000000       0.00000000    -372.61181641
Si       0.00000000       0.00000000       0.59151515       0.00000000       0.00000000     372.61181641
2
Properties=species:S:1:pos:R:3:forces:R:3 energy=60.53087269087665 pbc="F F F"
Si       0.00000000       0.00000000       0.00000000       0.00000000       0.00000000    -355.11962891
Si       0.00000000       0.00000000       0.65030303       0.00000000       0.00000000     355.11962891
2
Properties=species:S:1:pos:R:3:forces:R:3 energy=46.983078580086655 pbc="F F F"
Si       0.00000000       0.00000000       0.00000000       0.00000000       0.00000000      -3.11067867
Si       0.00000000       0.00000000       0.70909091       0.00000000       0.00000000       3.11067867
2
Properties=species:S:1:pos:R:3:forces:R:3 energy=45.47134874079094 pbc="F F F"
Si       0.00000000       0.00000000       0.00000000       0.00000000       0.00000000     -59.16414261
Si       0.00000000       0.00000000       0.76787879       0.00000000       0.00000000      59.16414261
2
Properties=species:S:1:pos:R:3:forces:R:3 energy=41.12983086138198 pbc="F F F"
Si       0.00000000       0.00000000       0.00000000       0.00000000       0.00000000     -93.09712219
Si       0.00000000       0.00000000       0.82666667       0.00000000       0.00000000      93.09712219
2
Properties=species:S:1:pos:R:3:forces:R:3 energy=34.37063818857785 pbc="F F F"
Si       0.00000000       0.00000000       0.00000000       0.00000000       0.00000000    -127.01697540
Si       0.00000000       0.00000000       0.88545455       0.00000000       0.00000000     127.01697540
2
Properties=species:S:1:pos:R:3:forces:R:3 energy=27.584901248961796 pbc="F F F"
Si       0.00000000       0.00000000       0.00000000       0.00000000       0.00000000    -101.24288177
Si       0.00000000       0.00000000       0.94424242       0.00000000       0.00000000     101.24288177
2
Properties=species:S:1:pos:R:3:forces:R:3 energy=22.33704655335198 pbc="F F F"
Si       0.00000000       0.00000000       0.00000000       0.00000000       0.00000000     -80.90525818
Si       0.00000000       0.00000000       1.00303030       0.00000000       0.00000000      80.90525818
2
Properties=species:S:1:pos:R:3:forces:R:3 energy=17.646878210308838 pbc="F F F"
Si       0.00000000       0.00000000       0.00000000       0.00000000       0.00000000     -78.77898407
Si       0.00000000       0.00000000       1.06181818       0.00000000       0.00000000      78.77898407
2
Properties=species:S:1:pos:R:3:forces:R:3 energy=13.199544598352297 pbc="F F F"
Si       0.00000000       0.00000000       0.00000000       0.00000000       0.00000000     -72.14052582
Si       0.00000000       0.00000000       1.12060606       0.00000000       0.00000000      72.14052582
2
Properties=species:S:1:pos:R:3:forces:R:3 energy=9.239463072760863 pbc="F F F"
Si       0.00000000       0.00000000       0.00000000       0.00000000       0.00000000     -61.51558304
Si       0.00000000       0.00000000       1.17939394       0.00000000       0.00000000      61.51558304
2
Properties=species:S:1:pos:R:3:forces:R:3 energy=6.027632066322175 pbc="F F F"
Si       0.00000000       0.00000000       0.00000000       0.00000000       0.00000000     -47.98635864
Si       0.00000000       0.00000000       1.23818182       0.00000000       0.00000000      47.98635864
2
Properties=species:S:1:pos:R:3:forces:R:3 energy=3.5441705618131296 pbc="F F F"
Si       0.00000000       0.00000000       0.00000000       0.00000000       0.00000000     -36.84690094
Si       0.00000000       0.00000000       1.29696970       0.00000000       0.00000000      36.84690094
2
Properties=species:S:1:pos:R:3:forces:R:3 energy=1.6747684383662722 pbc="F F F"
Si       0.00000000       0.00000000       0.00000000       0.00000000       0.00000000     -26.89232445
Si       0.00000000       0.00000000       1.35575758       0.00000000       0.00000000      26.89232445
2
Properties=species:S:1:pos:R:3:forces:R:3 energy=0.34855441169235873 pbc="F F F"
Si       0.00000000       0.00000000       0.00000000       0.00000000       0.00000000     -18.68850517
Si       0.00000000       0.00000000       1.41454545       0.00000000       0.00000000      18.68850517
2
Properties=species:S:1:pos:R:3:forces:R:3 energy=-0.587918198555145 pbc="F F F"
Si       0.00000000       0.00000000       0.00000000       0.00000000       0.00000000     -13.73109818
Si       0.00000000       0.00000000       1.47333333       0.00000000       0.00000000      13.73109818
2
Properties=species:S:1:pos:R:3:forces:R:3 energy=-1.3203123357065396 pbc="F F F"
Si       0.00000000       0.00000000       0.00000000       0.00000000       0.00000000     -11.52081490
Si       0.00000000       0.00000000       1.53212121       0.00000000       0.00000000      11.52081490
2
Properties=species:S:1:pos:R:3:forces:R:3 energy=-1.9673397050662127 pbc="F F F"
Si       0.00000000       0.00000000       0.00000000       0.00000000       0.00000000     -10.59980679
Si       0.00000000       0.00000000       1.59090909       0.00000000       0.00000000      10.59980679
2
Properties=species:S:1:pos:R:3:forces:R:3 energy=-2.5713583301006993 pbc="F F F"
Si       0.00000000       0.00000000       0.00000000       0.00000000       0.00000000      -9.94167328
Si       0.00000000       0.00000000       1.64969697       0.00000000       0.00000000       9.94167328
2
Properties=species:S:1:pos:R:3:forces:R:3 energy=-3.132231726172814 pbc="F F F"
Si       0.00000000       0.00000000       0.00000000       0.00000000       0.00000000      -9.08961582
Si       0.00000000       0.00000000       1.70848485       0.00000000       0.00000000       9.08961582
2
Properties=species:S:1:pos:R:3:forces:R:3 energy=-3.633841451682946 pbc="F F F"
Si       0.00000000       0.00000000       0.00000000       0.00000000       0.00000000      -7.92658472
Si       0.00000000       0.00000000       1.76727273       0.00000000       0.00000000       7.92658472
2
Properties=species:S:1:pos:R:3:forces:R:3 energy=-4.059871854852703 pbc="F F F"
Si       0.00000000       0.00000000       0.00000000       0.00000000       0.00000000      -6.54518986
Si       0.00000000       0.00000000       1.82606061       0.00000000       0.00000000       6.54518986
2
Properties=species:S:1:pos:R:3:forces:R:3 energy=-4.402556290572757 pbc="F F F"
Si       0.00000000       0.00000000       0.00000000       0.00000000       0.00000000      -5.11802864
Si       0.00000000       0.00000000       1.88484848       0.00000000       0.00000000       5.11802864
2
Properties=species:S:1:pos:R:3:forces:R:3 energy=-4.6629271739749925 pbc="F F F"
Si       0.00000000       0.00000000       0.00000000       0.00000000       0.00000000      -3.75346255
Si       0.00000000       0.00000000       1.94363636       0.00000000       0.00000000       3.75346255
2
Properties=species:S:1:pos:R:3:forces:R:3 energy=-4.845347585727739 pbc="F F F"
Si       0.00000000       0.00000000       0.00000000       0.00000000       0.00000000      -2.46390295
Si       0.00000000       0.00000000       2.00242424       0.00000000       0.00000000       2.46390295
2
Properties=species:S:1:pos:R:3:forces:R:3 energy=-4.954049161002587 pbc="F F F"
Si       0.00000000       0.00000000       0.00000000       0.00000000       0.00000000      -1.24895418
Si       0.00000000       0.00000000       2.06121212       0.00000000       0.00000000       1.24895418
2
Properties=species:S:1:pos:R:3:forces:R:3 energy=-4.994481318388547 pbc="F F F"
Si       0.00000000       0.00000000       0.00000000       0.00000000       0.00000000      -0.15153793
Si       0.00000000       0.00000000       2.12000000       0.00000000       0.00000000       0.15153793
2
Properties=species:S:1:pos:R:3:forces:R:3 energy=-4.975389442940379 pbc="F F F"
Si       0.00000000       0.00000000       0.00000000       0.00000000       0.00000000       0.76703626
Si       0.00000000       0.00000000       2.17878788       0.00000000       0.00000000      -0.76703626
2
Properties=species:S:1:pos:R:3:forces:R:3 energy=-4.908546613760033 pbc="F F F"
Si       0.00000000       0.00000000       0.00000000       0.00000000       0.00000000       1.47016108
Si       0.00000000       0.00000000       2.23757576       0.00000000       0.00000000      -1.47016108
2
Properties=species:S:1:pos:R:3:forces:R:3 energy=-4.8067615905937595 pbc="F F F"
Si       0.00000000       0.00000000       0.00000000       0.00000000       0.00000000       1.95823789
Si       0.00000000       0.00000000       2.29636364       0.00000000       0.00000000      -1.95823789
2
Properties=species:S:1:pos:R:3:forces:R:3 energy=-4.682057859760118 pbc="F F F"
Si       0.00000000       0.00000000       0.00000000       0.00000000       0.00000000       2.25507379
Si       0.00000000       0.00000000       2.35515152       0.00000000       0.00000000      -2.25507379
2
Properties=species:S:1:pos:R:3:forces:R:3 energy=-4.544711829603434 pbc="F F F"
Si       0.00000000       0.00000000       0.00000000       0.00000000       0.00000000       2.39425135
Si       0.00000000       0.00000000       2.41393939       0.00000000       0.00000000      -2.39425135
2
Properties=species:S:1:pos:R:3:forces:R:3 energy=-4.402887361851129 pbc="F F F"
Si       0.00000000       0.00000000       0.00000000       0.00000000       0.00000000       2.41433835
Si       0.00000000       0.00000000       2.47272727       0.00000000       0.00000000      -2.41433835
2
Properties=species:S:1:pos:R:3:forces:R:3 energy=-4.262339624125583 pbc="F F F"
Si       0.00000000       0.00000000       0.00000000       0.00000000       0.00000000       2.35818172
Si       0.00000000       0.00000000       2.53151515       0.00000000       0.00000000      -2.35818172
2
Properties=species:S:1:pos:R:3:forces:R:3 energy=-4.126285552566108 pbc="F F F"
Si       0.00000000       0.00000000       0.00000000       0.00000000       0.00000000       2.26785159
Si       0.00000000       0.00000000       2.59030303       0.00000000       0.00000000      -2.26785159
2
Properties=species:S:1:pos:R:3:forces:R:3 energy=-3.9957314915308153 pbc="F F F"
Si       0.00000000       0.00000000       0.00000000       0.00000000       0.00000000       2.17507243
Si       0.00000000       0.00000000       2.64909091       0.00000000       0.00000000      -2.17507243
2
Properties=species:S:1:pos:R:3:forces:R:3 energy=-3.8702831930826456 pbc="F F F"
Si       0.00000000       0.00000000       0.00000000       0.00000000       0.00000000       2.09545374
Si       0.00000000       0.00000000       2.70787879       0.00000000       0.00000000      -2.09545374
2
Properties=species:S:1:pos:R:3:forces:R:3 energy=-3.7490419074562067 pbc="F F F"
Si       0.00000000       0.00000000       0.00000000       0.00000000       0.00000000       2.03167081
Si       0.00000000       0.00000000       2.76666667       0.00000000       0.00000000      -2.03167081
2
Properties=species:S:1:pos:R:3:forces:R:3 energy=-3.6311850455589303 pbc="F F F"
Si       0.00000000       0.00000000       0.00000000       0.00000000       0.00000000       1.97915006
Si       0.00000000       0.00000000       2.82545455       0.00000000       0.00000000      -1.97915006
2
Properties=species:S:1:pos:R:3:forces:R:3 energy=-3.516276440508128 pbc="F F F"
Si       0.00000000       0.00000000       0.00000000       0.00000000       0.00000000       1.93008029
Si       0.00000000       0.00000000       2.88424242       0.00000000       0.00000000      -1.93008029
2
Properties=species:S:1:pos:R:3:forces:R:3 energy=-3.404290986213024 pbc="F F F"
Si       0.00000000       0.00000000       0.00000000       0.00000000       0.00000000       1.87933767
Si       0.00000000       0.00000000       2.94303030       0.00000000       0.00000000      -1.87933767
2
Properties=species:S:1:pos:R:3:forces:R:3 energy=-3.295344243696146 pbc="F F F"
Si       0.00000000       0.00000000       0.00000000       0.00000000       0.00000000       1.82702303
Si       0.00000000       0.00000000       3.00181818       0.00000000       0.00000000      -1.82702303
2
Properties=species:S:1:pos:R:3:forces:R:3 energy=-3.1894611026737714 pbc="F F F"
Si       0.00000000       0.00000000       0.00000000       0.00000000       0.00000000       1.77552390
Si       0.00000000       0.00000000       3.06060606       0.00000000       0.00000000      -1.77552390
2
Properties=species:S:1:pos:R:3:forces:R:3 energy=-3.0865405585379717 pbc="F F F"
Si       0.00000000       0.00000000       0.00000000       0.00000000       0.00000000       1.72627258
Si       0.00000000       0.00000000       3.11939394       0.00000000       0.00000000      -1.72627258
2
Properties=species:S:1:pos:R:3:forces:R:3 energy=-2.98646099862094 pbc="F F F"
Si       0.00000000       0.00000000       0.00000000       0.00000000       0.00000000       1.67857468
Si       0.00000000       0.00000000       3.17818182       0.00000000       0.00000000      -1.67857468
2
Properties=species:S:1:pos:R:3:forces:R:3 energy=-2.8891979811982553 pbc="F F F"
Si       0.00000000       0.00000000       0.00000000       0.00000000       0.00000000       1.62997663
Si       0.00000000       0.00000000       3.23696970       0.00000000       0.00000000      -1.62997663
2
Properties=species:S:1:pos:R:3:forces:R:3 energy=-2.794894815612966 pbc="F F F"
Si       0.00000000       0.00000000       0.00000000       0.00000000       0.00000000       1.57735217
Si       0.00000000       0.00000000       3.29575758       0.00000000       0.00000000      -1.57735217
2
Properties=species:S:1:pos:R:3:forces:R:3 energy=-2.703872106891048 pbc="F F F"
Si       0.00000000       0.00000000       0.00000000       0.00000000       0.00000000       1.51801038
Si       0.00000000       0.00000000       3.35454545       0.00000000       0.00000000      -1.51801038
2
Properties=species:S:1:pos:R:3:forces:R:3 energy=-2.616573291287695 pbc="F F F"
Si       0.00000000       0.00000000       0.00000000       0.00000000       0.00000000       1.45054209
Si       0.00000000       0.00000000       3.41333333       0.00000000       0.00000000      -1.45054209
2
Properties=species:S:1:pos:R:3:forces:R:3 energy=-2.5334788409571 pbc="F F F"
Si       0.00000000       0.00000000       0.00000000       0.00000000       0.00000000       1.37518013
Si       0.00000000       0.00000000       3.47212121       0.00000000       0.00000000      -1.37518013
2
Properties=species:S:1:pos:R:3:forces:R:3 energy=-2.4550079529746403 pbc="F F F"
Si       0.00000000       0.00000000       0.00000000       0.00000000       0.00000000       1.29365957
Si       0.00000000       0.00000000       3.53090909       0.00000000       0.00000000      -1.29365957
2
Properties=species:S:1:pos:R:3:forces:R:3 energy=-2.381442749571821 pbc="F F F"
Si       0.00000000       0.00000000       0.00000000       0.00000000       0.00000000       1.20869601
Si       0.00000000       0.00000000       3.58969697       0.00000000       0.00000000      -1.20869601
2
Properties=species:S:1:pos:R:3:forces:R:3 energy=-2.3129021526309645 pbc="F F F"
Si       0.00000000       0.00000000       0.00000000       0.00000000       0.00000000       1.12326419
Si       0.00000000       0.00000000       3.64848485       0.00000000       0.00000000      -1.12326419
2
Properties=species:S:1:pos:R:3:forces:R:3 energy=-2.24933441901743 pbc="F F F"
Si       0.00000000       0.00000000       0.00000000       0.00000000       0.00000000       1.03991020
Si       0.00000000       0.00000000       3.70727273       0.00000000       0.00000000      -1.03991020
2
Properties=species:S:1:pos:R:3:forces:R:3 energy=-2.1905598998686484 pbc="F F F"
Si       0.00000000       0.00000000       0.00000000       0.00000000       0.00000000       0.96030450
Si       0.00000000       0.00000000       3.76606061       0.00000000       0.00000000      -0.96030450
2
Properties=species:S:1:pos:R:3:forces:R:3 energy=-2.136337772453696 pbc="F F F"
Si       0.00000000       0.00000000       0.00000000       0.00000000       0.00000000       0.88512653
Si       0.00000000       0.00000000       3.82484848       0.00000000       0.00000000      -0.88512653
2
Properties=species:S:1:pos:R:3:forces:R:3 energy=-2.0864077317464123 pbc="F F F"
Si       0.00000000       0.00000000       0.00000000       0.00000000       0.00000000       0.81415647
Si       0.00000000       0.00000000       3.88363636       0.00000000       0.00000000      -0.81415647
2
Properties=species:S:1:pos:R:3:forces:R:3 energy=-2.040545023935487 pbc="F F F"
Si       0.00000000       0.00000000       0.00000000       0.00000000       0.00000000       0.74660832
Si       0.00000000       0.00000000       3.94242424       0.00000000       0.00000000      -0.74660832
2
Properties=species:S:1:pos:R:3:forces:R:3 energy=-1.9985782854682528 pbc="F F F"
Si       0.00000000       0.00000000       0.00000000       0.00000000       0.00000000       0.68147689
Si       0.00000000       0.00000000       4.00121212       0.00000000       0.00000000      -0.68147689
2
Properties=species:S:1:pos:R:3:forces:R:3 energy=-1.9603901125866008 pbc="F F F"
Si       0.00000000       0.00000000       0.00000000       0.00000000       0.00000000       0.61789662
Si       0.00000000       0.00000000       4.06000000       0.00000000       0.00000000      -0.61789662
2
Properties=species:S:1:pos:R:3:forces:R:3 energy=-1.9259066140910623 pbc="F F F"
Si       0.00000000       0.00000000       0.00000000       0.00000000       0.00000000       0.55542934
Si       0.00000000       0.00000000       4.11878788       0.00000000       0.00000000      -0.55542934
2
Properties=species:S:1:pos:R:3:forces:R:3 energy=-1.895061175716522 pbc="F F F"
Si       0.00000000       0.00000000       0.00000000       0.00000000       0.00000000       0.49420229
Si       0.00000000       0.00000000       4.17757576       0.00000000       0.00000000      -0.49420229
2
Properties=species:S:1:pos:R:3:forces:R:3 energy=-1.8677625203781352 pbc="F F F"
Si       0.00000000       0.00000000       0.00000000       0.00000000       0.00000000       0.43491673
Si       0.00000000       0.00000000       4.23636364       0.00000000       0.00000000      -0.43491673
2
Properties=species:S:1:pos:R:3:forces:R:3 energy=-1.8438651304282765 pbc="F F F"
Si       0.00000000       0.00000000       0.00000000       0.00000000       0.00000000       0.37869734
Si       0.00000000       0.00000000       4.29515152       0.00000000       0.00000000      -0.37869734
2
Properties=species:S:1:pos:R:3:forces:R:3 energy=-1.823151763904714 pbc="F F F"
Si       0.00000000       0.00000000       0.00000000       0.00000000       0.00000000       0.32682770
Si       0.00000000       0.00000000       4.35393939       0.00000000       0.00000000      -0.32682770
2
Properties=species:S:1:pos:R:3:forces:R:3 energy=-1.8053306466086407 pbc="F F F"
Si       0.00000000       0.00000000       0.00000000       0.00000000       0.00000000       0.28044701
Si       0.00000000       0.00000000       4.41272727       0.00000000       0.00000000      -0.28044701
2
Properties=species:S:1:pos:R:3:forces:R:3 energy=-1.790054984414298 pbc="F F F"
Si       0.00000000       0.00000000       0.00000000       0.00000000       0.00000000       0.24031574
Si       0.00000000       0.00000000       4.47151515       0.00000000       0.00000000      -0.24031574
2
Properties=species:S:1:pos:R:3:forces:R:3 energy=-1.7769475536447534 pbc="F F F"
Si       0.00000000       0.00000000       0.00000000       0.00000000       0.00000000       0.20667717
Si       0.00000000       0.00000000       4.53030303       0.00000000       0.00000000      -0.20667717
2
Properties=species:S:1:pos:R:3:forces:R:3 energy=-1.7656326384900831 pbc="F F F"
Si       0.00000000       0.00000000       0.00000000       0.00000000       0.00000000       0.17926757
Si       0.00000000       0.00000000       4.58909091       0.00000000       0.00000000      -0.17926757
2
Properties=species:S:1:pos:R:3:forces:R:3 energy=-1.7557607532637294 pbc="F F F"
Si       0.00000000       0.00000000       0.00000000       0.00000000       0.00000000       0.15743816
Si       0.00000000       0.00000000       4.64787879       0.00000000       0.00000000      -0.15743816
2
Properties=species:S:1:pos:R:3:forces:R:3 energy=-1.7470289650025226 pbc="F F F"
Si       0.00000000       0.00000000       0.00000000       0.00000000       0.00000000       0.14033014
Si       0.00000000       0.00000000       4.70666667       0.00000000       0.00000000      -0.14033014
2
Properties=species:S:1:pos:R:3:forces:R:3 energy=-1.7391863549192466 pbc="F F F"
Si       0.00000000       0.00000000       0.00000000       0.00000000       0.00000000       0.12704979
Si       0.00000000       0.00000000       4.76545455       0.00000000       0.00000000      -0.12704979
2
Properties=species:S:1:pos:R:3:forces:R:3 energy=-1.7320318437090674 pbc="F F F"
Si       0.00000000       0.00000000       0.00000000       0.00000000       0.00000000       0.11679240
Si       0.00000000       0.00000000       4.82424242       0.00000000       0.00000000      -0.11679240
2
Properties=species:S:1:pos:R:3:forces:R:3 energy=-1.725408410482967 pbc="F F F"
Si       0.00000000       0.00000000       0.00000000       0.00000000       0.00000000       0.10890526
Si       0.00000000       0.00000000       4.88303030       0.00000000       0.00000000      -0.10890526
2
Properties=species:S:1:pos:R:3:forces:R:3 energy=-1.7191908300500292 pbc="F F F"
Si       0.00000000       0.00000000       0.00000000       0.00000000       0.00000000       0.10288528
Si       0.00000000       0.00000000       4.94181818       0.00000000       0.00000000      -0.10288528
2
Properties=species:S:1:pos:R:3:forces:R:3 energy=-1.7132823140505302 pbc="F F F"
Si       0.00000000       0.00000000       0.00000000       0.00000000       0.00000000       0.09832979
Si       0.00000000       0.00000000       5.00060606       0.00000000       0.00000000      -0.09832979
2
Properties=species:S:1:pos:R:3:forces:R:3 energy=-1.7076078189806536 pbc="F F F"
Si       0.00000000       0.00000000       0.00000000       0.00000000       0.00000000       0.09486400
Si       0.00000000       0.00000000       5.05939394       0.00000000       0.00000000      -0.09486400
2
Properties=species:S:1:pos:R:3:forces:R:3 energy=-1.7021150984852527 pbc="F F F"
Si       0.00000000       0.00000000       0.00000000       0.00000000       0.00000000       0.09207891
Si       0.00000000       0.00000000       5.11818182       0.00000000       0.00000000      -0.09207891
2
Properties=species:S:1:pos:R:3:forces:R:3 energy=-1.6967777817925753 pbc="F F F"
Si       0.00000000       0.00000000       0.00000000       0.00000000       0.00000000       0.08950451
Si       0.00000000       0.00000000       5.17696970       0.00000000       0.00000000      -0.08950451
2
Properties=species:S:1:pos:R:3:forces:R:3 energy=-1.691597590757474 pbc="F F F"
Si       0.00000000       0.00000000       0.00000000       0.00000000       0.00000000       0.08664210
Si       0.00000000       0.00000000       5.23575758       0.00000000       0.00000000      -0.08664210
2
Properties=species:S:1:pos:R:3:forces:R:3 energy=-1.6866060135431944 pbc="F F F"
Si       0.00000000       0.00000000       0.00000000       0.00000000       0.00000000       0.08301986
Si       0.00000000       0.00000000       5.29454545       0.00000000       0.00000000      -0.08301986
2
Properties=species:S:1:pos:R:3:forces:R:3 energy=-1.6818583009753374 pbc="F F F"
Si       0.00000000       0.00000000       0.00000000       0.00000000       0.00000000       0.07828051
Si       0.00000000       0.00000000       5.35333333       0.00000000       0.00000000      -0.07828051
2
Properties=species:S:1:pos:R:3:forces:R:3 energy=-1.6774271595368924 pbc="F F F"
Si       0.00000000       0.00000000       0.00000000       0.00000000       0.00000000       0.07224787
Si       0.00000000       0.00000000       5.41212121       0.00000000       0.00000000      -0.07224787
2
Properties=species:S:1:pos:R:3:forces:R:3 energy=-1.673388485851267 pbc="F F F"
Si       0.00000000       0.00000000       0.00000000       0.00000000       0.00000000       0.06495941
Si       0.00000000       0.00000000       5.47090909       0.00000000       0.00000000      -0.06495941
2
Properties=species:S:1:pos:R:3:forces:R:3 energy=-1.6698094790154652 pbc="F F F"
Si       0.00000000       0.00000000       0.00000000       0.00000000       0.00000000       0.05665345
Si       0.00000000       0.00000000       5.52969697       0.00000000       0.00000000      -0.05665345
2
Properties=species:S:1:pos:R:3:forces:R:3 energy=-1.6667398088172378 pbc="F F F"
Si       0.00000000       0.00000000       0.00000000       0.00000000       0.00000000       0.04771531
Si       0.00000000       0.00000000       5.58848485       0.00000000       0.00000000      -0.04771531
2
Properties=species:S:1:pos:R:3:forces:R:3 energy=-1.6642025039360087 pbc="F F F"
Si       0.00000000       0.00000000       0.00000000       0.00000000       0.00000000       0.03862068
Si       0.00000000       0.00000000       5.64727273       0.00000000       0.00000000      -0.03862068
2
Properties=species:S:1:pos:R:3:forces:R:3 energy=-1.6621926026268226 pbc="F F F"
Si       0.00000000       0.00000000       0.00000000       0.00000000       0.00000000       0.02987082
Si       0.00000000       0.00000000       5.70606061       0.00000000       0.00000000      -0.02987082
2
Properties=species:S:1:pos:R:3:forces:R:3 energy=-1.6606730089056119 pbc="F F F"
Si       0.00000000       0.00000000       0.00000000       0.00000000       0.00000000       0.02192819
Si       0.00000000       0.00000000       5.76484848       0.00000000       0.00000000      -0.02192819
2
Properties=species:S:1:pos:R:3:forces:R:3 energy=-1.6595894301403435 pbc="F F F"
Si       0.00000000       0.00000000       0.00000000       0.00000000       0.00000000       0.01520463
Si       0.00000000       0.00000000       5.82363636       0.00000000       0.00000000      -0.01520463
2
Properties=species:S:1:pos:R:3:forces:R:3 energy=-1.6588568604678797 pbc="F F F"
Si       0.00000000       0.00000000       0.00000000       0.00000000       0.00000000       0.01002607
Si       0.00000000       0.00000000       5.88242424       0.00000000       0.00000000      -0.01002607
2
Properties=species:S:1:pos:R:3:forces:R:3 energy=-1.6583753500783085 pbc="F F F"
Si       0.00000000       0.00000000       0.00000000       0.00000000       0.00000000       0.00664877
Si       0.00000000       0.00000000       5.94121212       0.00000000       0.00000000      -0.00664877
2
Properties=species:S:1:pos:R:3:forces:R:3 energy=-1.658035731616598 pbc="F F F"
Si       0.00000000       0.00000000       0.00000000       0.00000000       0.00000000       0.00526128
Si       0.00000000       0.00000000       6.00000000       0.00000000       0.00000000      -0.00526128
