2
Properties=species:S:1:pos:R:3:forces:R:3 energy=13375.825860370429 pbc="F F F"
Sm       0.00000000       0.00000000       0.00000000       0.00000000       0.00000000 -210033.48437500
Sm       0.00000000       0.00000000       0.18000000       0.00000000       0.00000000  210033.48437500
2
Properties=species:S:1:pos:R:3:forces:R:3 energy=5982.649102557929 pbc="F F F"
Sm       0.00000000       0.00000000       0.00000000       0.00000000       0.00000000  -70694.30468750
Sm       0.00000000       0.00000000       0.23878788       0.00000000       0.00000000   70694.30468750
2
Properties=species:S:1:pos:R:3:forces:R:3 energy=3299.2094052923044 pbc="F F F"
Sm       0.00000000       0.00000000       0.00000000       0.00000000       0.00000000  -28032.59765625
Sm       0.00000000       0.00000000       0.29757576       0.00000000       0.00000000   28032.59765625
2
Properties=species:S:1:pos:R:3:forces:R:3 energy=2183.4640439641794 pbc="F F F"
Sm       0.00000000       0.00000000       0.00000000       0.00000000       0.00000000  -12323.05273438
Sm       0.00000000       0.00000000       0.35636364       0.00000000       0.00000000   12323.05273438
2
Properties=species:S:1:pos:R:3:forces:R:3 energy=1675.5968564641792 pbc="F F F"
Sm       0.00000000       0.00000000       0.00000000       0.00000000       0.00000000   -5853.73388672
Sm       0.00000000       0.00000000       0.41515152       0.00000000       0.00000000    5853.73388672
2
Properties=species:S:1:pos:R:3:forces:R:3 energy=1426.3890928176468 pbc="F F F"
Sm       0.00000000       0.00000000       0.00000000       0.00000000       0.00000000   -2997.52661133
Sm       0.00000000       0.00000000       0.47393939       0.00000000       0.00000000    2997.52661133
2
Properties=species:S:1:pos:R:3:forces:R:3 energy=1293.5070127395218 pbc="F F F"
Sm       0.00000000       0.00000000       0.00000000       0.00000000       0.00000000   -1690.92822266
Sm       0.00000000       0.00000000       0.53272727       0.00000000       0.00000000    1690.92822266
2
Properties=species:S:1:pos:R:3:forces:R:3 energy=1213.6982969445519 pbc="F F F"
Sm       0.00000000       0.00000000       0.00000000       0.00000000       0.00000000   -1106.81738281
Sm       0.00000000       0.00000000       0.59151515       0.00000000       0.00000000    1106.81738281
2
Properties=species:S:1:pos:R:3:forces:R:3 energy=1156.1550841046121 pbc="F F F"
Sm       0.00000000       0.00000000       0.00000000       0.00000000       0.00000000    -897.22143555
Sm       0.00000000       0.00000000       0.65030303       0.00000000       0.00000000     897.22143555
2
Properties=species:S:1:pos:R:3:forces:R:3 energy=1103.8120666025147 pbc="F F F"
Sm       0.00000000       0.00000000       0.00000000       0.00000000       0.00000000    -914.78381348
Sm       0.00000000       0.00000000       0.70909091       0.00000000       0.00000000     914.78381348
2
Properties=species:S:1:pos:R:3:forces:R:3 energy=1045.35662239329 pbc="F F F"
Sm       0.00000000       0.00000000       0.00000000       0.00000000       0.00000000   -1098.80224609
Sm       0.00000000       0.00000000       0.76787879       0.00000000       0.00000000    1098.80224609
2
Properties=species:S:1:pos:R:3:forces:R:3 energy=971.9240053578457 pbc="F F F"
Sm       0.00000000       0.00000000       0.00000000       0.00000000       0.00000000   -1420.27978516
Sm       0.00000000       0.00000000       0.82666667       0.00000000       0.00000000    1420.27978516
2
Properties=species:S:1:pos:R:3:forces:R:3 energy=876.2947941728188 pbc="F F F"
Sm       0.00000000       0.00000000       0.00000000       0.00000000       0.00000000   -1846.30676270
Sm       0.00000000       0.00000000       0.88545455       0.00000000       0.00000000    1846.30676270
2
Properties=species:S:1:pos:R:3:forces:R:3 energy=754.0397285969749 pbc="F F F"
Sm       0.00000000       0.00000000       0.00000000       0.00000000       0.00000000   -2311.27294922
Sm       0.00000000       0.00000000       0.94424242       0.00000000       0.00000000    2311.27294922
2
Properties=species:S:1:pos:R:3:forces:R:3 energy=606.0189160521887 pbc="F F F"
Sm       0.00000000       0.00000000       0.00000000       0.00000000       0.00000000   -2699.76855469
Sm       0.00000000       0.00000000       1.00303030       0.00000000       0.00000000    2699.76855469
2
Properties=species:S:1:pos:R:3:forces:R:3 energy=441.08697087230064 pbc="F F F"
Sm       0.00000000       0.00000000       0.00000000       0.00000000       0.00000000   -2860.90869141
Sm       0.00000000       0.00000000       1.06181818       0.00000000       0.00000000    2860.90869141
2
Properties=species:S:1:pos:R:3:forces:R:3 energy=276.5673183756219 pbc="F F F"
Sm       0.00000000       0.00000000       0.00000000       0.00000000       0.00000000   -2673.25000000
Sm       0.00000000       0.00000000       1.12060606       0.00000000       0.00000000    2673.25000000
2
Properties=species:S:1:pos:R:3:forces:R:3 energy=133.2307716011189 pbc="F F F"
Sm       0.00000000       0.00000000       0.00000000       0.00000000       0.00000000   -2166.20703125
Sm       0.00000000       0.00000000       1.17939394       0.00000000       0.00000000    2166.20703125
2
Properties=species:S:1:pos:R:3:forces:R:3 energy=39.109644925356555 pbc="F F F"
Sm       0.00000000       0.00000000       0.00000000       0.00000000       0.00000000    -662.29479980
Sm       0.00000000       0.00000000       1.23818182       0.00000000       0.00000000     662.29479980
2
Properties=species:S:1:pos:R:3:forces:R:3 energy=20.664849196139105 pbc="F F F"
Sm       0.00000000       0.00000000       0.00000000       0.00000000       0.00000000    -218.40625000
Sm       0.00000000       0.00000000       1.29696970       0.00000000       0.00000000     218.40625000
2
Properties=species:S:1:pos:R:3:forces:R:3 energy=12.936695336503185 pbc="F F F"
Sm       0.00000000       0.00000000       0.00000000       0.00000000       0.00000000     -77.36804199
Sm       0.00000000       0.00000000       1.35575758       0.00000000       0.00000000      77.36804199
2
Properties=species:S:1:pos:R:3:forces:R:3 energy=8.97762606183472 pbc="F F F"
Sm       0.00000000       0.00000000       0.00000000       0.00000000       0.00000000     -63.98033142
Sm       0.00000000       0.00000000       1.41454545       0.00000000       0.00000000      63.98033142
2
Properties=species:S:1:pos:R:3:forces:R:3 energy=5.3939780164467965 pbc="F F F"
Sm       0.00000000       0.00000000       0.00000000       0.00000000       0.00000000     -55.65935898
Sm       0.00000000       0.00000000       1.47333333       0.00000000       0.00000000      55.65935898
2
Properties=species:S:1:pos:R:3:forces:R:3 energy=2.5982381440055966 pbc="F F F"
Sm       0.00000000       0.00000000       0.00000000       0.00000000       0.00000000     -39.17498779
Sm       0.00000000       0.00000000       1.53212121       0.00000000       0.00000000      39.17498779
2
Properties=species:S:1:pos:R:3:forces:R:3 energy=0.74944758405819 pbc="F F F"
Sm       0.00000000       0.00000000       0.00000000       0.00000000       0.00000000     -24.29811668
Sm       0.00000000       0.00000000       1.59090909       0.00000000       0.00000000      24.29811668
2
Properties=species:S:1:pos:R:3:forces:R:3 energy=-0.32503023335761216 pbc="F F F"
Sm       0.00000000       0.00000000       0.00000000       0.00000000       0.00000000     -12.76600742
Sm       0.00000000       0.00000000       1.64969697       0.00000000       0.00000000      12.76600742
2
Properties=species:S:1:pos:R:3:forces:R:3 energy=-0.8062750549503676 pbc="F F F"
Sm       0.00000000       0.00000000       0.00000000       0.00000000       0.00000000      -4.05592442
Sm       0.00000000       0.00000000       1.70848485       0.00000000       0.00000000       4.05592442
2
Properties=species:S:1:pos:R:3:forces:R:3 energy=-0.8566256843332012 pbc="F F F"
Sm       0.00000000       0.00000000       0.00000000       0.00000000       0.00000000       1.86076128
Sm       0.00000000       0.00000000       1.76727273       0.00000000       0.00000000      -1.86076128
2
Properties=species:S:1:pos:R:3:forces:R:3 energy=-0.6431885561029546 pbc="F F F"
Sm       0.00000000       0.00000000       0.00000000       0.00000000       0.00000000       4.95937395
Sm       0.00000000       0.00000000       1.82606061       0.00000000       0.00000000      -4.95937395
2
Properties=species:S:1:pos:R:3:forces:R:3 energy=-0.31863669111249676 pbc="F F F"
Sm       0.00000000       0.00000000       0.00000000       0.00000000       0.00000000       5.75977612
Sm       0.00000000       0.00000000       1.88484848       0.00000000       0.00000000      -5.75977612
2
Properties=species:S:1:pos:R:3:forces:R:3 energy=0.00233764151036156 pbc="F F F"
Sm       0.00000000       0.00000000       0.00000000       0.00000000       0.00000000       4.93571663
Sm       0.00000000       0.00000000       1.94363636       0.00000000       0.00000000      -4.93571663
2
Properties=species:S:1:pos:R:3:forces:R:3 energy=0.24076683787296502 pbc="F F F"
Sm       0.00000000       0.00000000       0.00000000       0.00000000       0.00000000       3.05492449
Sm       0.00000000       0.00000000       2.00242424       0.00000000       0.00000000      -3.05492449
2
Properties=species:S:1:pos:R:3:forces:R:3 energy=0.3559705760727095 pbc="F F F"
Sm       0.00000000       0.00000000       0.00000000       0.00000000       0.00000000       0.89155269
Sm       0.00000000       0.00000000       2.06121212       0.00000000       0.00000000      -0.89155269
2
Properties=species:S:1:pos:R:3:forces:R:3 energy=0.3549223531302563 pbc="F F F"
Sm       0.00000000       0.00000000       0.00000000       0.00000000       0.00000000      -0.81950951
Sm       0.00000000       0.00000000       2.12000000       0.00000000       0.00000000       0.81950951
2
Properties=species:S:1:pos:R:3:forces:R:3 energy=0.27202292217359697 pbc="F F F"
Sm       0.00000000       0.00000000       0.00000000       0.00000000       0.00000000      -1.90934825
Sm       0.00000000       0.00000000       2.17878788       0.00000000       0.00000000       1.90934825
2
Properties=species:S:1:pos:R:3:forces:R:3 energy=0.13882797850681386 pbc="F F F"
Sm       0.00000000       0.00000000       0.00000000       0.00000000       0.00000000      -2.56932402
Sm       0.00000000       0.00000000       2.23757576       0.00000000       0.00000000       2.56932402
2
Properties=species:S:1:pos:R:3:forces:R:3 energy=-0.02555069159383863 pbc="F F F"
Sm       0.00000000       0.00000000       0.00000000       0.00000000       0.00000000      -2.99556208
Sm       0.00000000       0.00000000       2.29636364       0.00000000       0.00000000       2.99556208
2
Properties=species:S:1:pos:R:3:forces:R:3 energy=-0.210946410020075 pbc="F F F"
Sm       0.00000000       0.00000000       0.00000000       0.00000000       0.00000000      -3.29556298
Sm       0.00000000       0.00000000       2.35515152       0.00000000       0.00000000       3.29556298
2
Properties=species:S:1:pos:R:3:forces:R:3 energy=-0.41138784011026086 pbc="F F F"
Sm       0.00000000       0.00000000       0.00000000       0.00000000       0.00000000      -3.51065183
Sm       0.00000000       0.00000000       2.41393939       0.00000000       0.00000000       3.51065183
2
Properties=species:S:1:pos:R:3:forces:R:3 energy=-0.6221861374615619 pbc="F F F"
Sm       0.00000000       0.00000000       0.00000000       0.00000000       0.00000000      -3.64730430
Sm       0.00000000       0.00000000       2.47272727       0.00000000       0.00000000       3.64730430
2
Properties=species:S:1:pos:R:3:forces:R:3 energy=-0.8385377023068644 pbc="F F F"
Sm       0.00000000       0.00000000       0.00000000       0.00000000       0.00000000      -3.69794011
Sm       0.00000000       0.00000000       2.53151515       0.00000000       0.00000000       3.69794011
2
Properties=species:S:1:pos:R:3:forces:R:3 energy=-1.0551090756375257 pbc="F F F"
Sm       0.00000000       0.00000000       0.00000000       0.00000000       0.00000000      -3.65374041
Sm       0.00000000       0.00000000       2.59030303       0.00000000       0.00000000       3.65374041
2
Properties=species:S:1:pos:R:3:forces:R:3 energy=-1.2662258359501046 pbc="F F F"
Sm       0.00000000       0.00000000       0.00000000       0.00000000       0.00000000      -3.51280427
Sm       0.00000000       0.00000000       2.64909091       0.00000000       0.00000000       3.51280427
2
Properties=species:S:1:pos:R:3:forces:R:3 energy=-1.4664065176914378 pbc="F F F"
Sm       0.00000000       0.00000000       0.00000000       0.00000000       0.00000000      -3.28419399
Sm       0.00000000       0.00000000       2.70787879       0.00000000       0.00000000       3.28419399
2
Properties=species:S:1:pos:R:3:forces:R:3 energy=-1.6510215910797226 pbc="F F F"
Sm       0.00000000       0.00000000       0.00000000       0.00000000       0.00000000      -2.98708630
Sm       0.00000000       0.00000000       2.76666667       0.00000000       0.00000000       2.98708630
2
Properties=species:S:1:pos:R:3:forces:R:3 energy=-1.8167448720060848 pbc="F F F"
Sm       0.00000000       0.00000000       0.00000000       0.00000000       0.00000000      -2.64553547
Sm       0.00000000       0.00000000       2.82545455       0.00000000       0.00000000       2.64553547
2
Properties=species:S:1:pos:R:3:forces:R:3 energy=-1.961642923834049 pbc="F F F"
Sm       0.00000000       0.00000000       0.00000000       0.00000000       0.00000000      -2.28181243
Sm       0.00000000       0.00000000       2.88424242       0.00000000       0.00000000       2.28181243
2
Properties=species:S:1:pos:R:3:forces:R:3 energy=-2.0849176695362055 pbc="F F F"
Sm       0.00000000       0.00000000       0.00000000       0.00000000       0.00000000      -1.91203749
Sm       0.00000000       0.00000000       2.94303030       0.00000000       0.00000000       1.91203749
2
Properties=species:S:1:pos:R:3:forces:R:3 energy=-2.1865251373795553 pbc="F F F"
Sm       0.00000000       0.00000000       0.00000000       0.00000000       0.00000000      -1.54590178
Sm       0.00000000       0.00000000       3.00181818       0.00000000       0.00000000       1.54590178
2
Properties=species:S:1:pos:R:3:forces:R:3 energy=-2.266869455846923 pbc="F F F"
Sm       0.00000000       0.00000000       0.00000000       0.00000000       0.00000000      -1.18953514
Sm       0.00000000       0.00000000       3.06060606       0.00000000       0.00000000       1.18953514
2
Properties=species:S:1:pos:R:3:forces:R:3 energy=-2.326690457115894 pbc="F F F"
Sm       0.00000000       0.00000000       0.00000000       0.00000000       0.00000000      -0.84875733
Sm       0.00000000       0.00000000       3.11939394       0.00000000       0.00000000       0.84875733
2
Properties=species:S:1:pos:R:3:forces:R:3 energy=-2.367099731285315 pbc="F F F"
Sm       0.00000000       0.00000000       0.00000000       0.00000000       0.00000000      -0.53027546
Sm       0.00000000       0.00000000       3.17818182       0.00000000       0.00000000       0.53027546
2
Properties=species:S:1:pos:R:3:forces:R:3 energy=-2.3895996214979878 pbc="F F F"
Sm       0.00000000       0.00000000       0.00000000       0.00000000       0.00000000      -0.24032322
Sm       0.00000000       0.00000000       3.23696970       0.00000000       0.00000000       0.24032322
2
Properties=species:S:1:pos:R:3:forces:R:3 energy=-2.3959818603665894 pbc="F F F"
Sm       0.00000000       0.00000000       0.00000000       0.00000000       0.00000000       0.01785596
Sm       0.00000000       0.00000000       3.29575758       0.00000000       0.00000000      -0.01785596
2
Properties=species:S:1:pos:R:3:forces:R:3 energy=-2.3881031293917165 pbc="F F F"
Sm       0.00000000       0.00000000       0.00000000       0.00000000       0.00000000       0.24536431
Sm       0.00000000       0.00000000       3.35454545       0.00000000       0.00000000      -0.24536431
2
Properties=species:S:1:pos:R:3:forces:R:3 energy=-2.367647781790526 pbc="F F F"
Sm       0.00000000       0.00000000       0.00000000       0.00000000       0.00000000       0.44663453
Sm       0.00000000       0.00000000       3.41333333       0.00000000       0.00000000      -0.44663453
2
Properties=species:S:1:pos:R:3:forces:R:3 energy=-2.3360047448180903 pbc="F F F"
Sm       0.00000000       0.00000000       0.00000000       0.00000000       0.00000000       0.62664509
Sm       0.00000000       0.00000000       3.47212121       0.00000000       0.00000000      -0.62664509
2
Properties=species:S:1:pos:R:3:forces:R:3 energy=-2.2943291181239225 pbc="F F F"
Sm       0.00000000       0.00000000       0.00000000       0.00000000       0.00000000       0.78818291
Sm       0.00000000       0.00000000       3.53090909       0.00000000       0.00000000      -0.78818291
2
Properties=species:S:1:pos:R:3:forces:R:3 energy=-2.2437046128320755 pbc="F F F"
Sm       0.00000000       0.00000000       0.00000000       0.00000000       0.00000000       0.93071496
Sm       0.00000000       0.00000000       3.58969697       0.00000000       0.00000000      -0.93071496
2
Properties=species:S:1:pos:R:3:forces:R:3 energy=-2.1853283766251 pbc="F F F"
Sm       0.00000000       0.00000000       0.00000000       0.00000000       0.00000000       1.05134904
Sm       0.00000000       0.00000000       3.64848485       0.00000000       0.00000000      -1.05134904
2
Properties=species:S:1:pos:R:3:forces:R:3 energy=-2.1205815022870165 pbc="F F F"
Sm       0.00000000       0.00000000       0.00000000       0.00000000       0.00000000       1.14706028
Sm       0.00000000       0.00000000       3.70727273       0.00000000       0.00000000      -1.14706028
2
Properties=species:S:1:pos:R:3:forces:R:3 energy=-2.0509738032919813 pbc="F F F"
Sm       0.00000000       0.00000000       0.00000000       0.00000000       0.00000000       1.21669960
Sm       0.00000000       0.00000000       3.76606061       0.00000000       0.00000000      -1.21669960
2
Properties=species:S:1:pos:R:3:forces:R:3 energy=-1.9780112404030212 pbc="F F F"
Sm       0.00000000       0.00000000       0.00000000       0.00000000       0.00000000       1.26169717
Sm       0.00000000       0.00000000       3.82484848       0.00000000       0.00000000      -1.26169717
2
Properties=species:S:1:pos:R:3:forces:R:3 energy=-1.9030478257205432 pbc="F F F"
Sm       0.00000000       0.00000000       0.00000000       0.00000000       0.00000000       1.28532326
Sm       0.00000000       0.00000000       3.88363636       0.00000000       0.00000000      -1.28532326
2
Properties=species:S:1:pos:R:3:forces:R:3 energy=-1.8272335230551089 pbc="F F F"
Sm       0.00000000       0.00000000       0.00000000       0.00000000       0.00000000       1.29127645
Sm       0.00000000       0.00000000       3.94242424       0.00000000       0.00000000      -1.29127645
2
Properties=species:S:1:pos:R:3:forces:R:3 energy=-1.751512754059517 pbc="F F F"
Sm       0.00000000       0.00000000       0.00000000       0.00000000       0.00000000       1.28257632
Sm       0.00000000       0.00000000       4.00121212       0.00000000       0.00000000      -1.28257632
2
Properties=species:S:1:pos:R:3:forces:R:3 energy=-1.6766816693729427 pbc="F F F"
Sm       0.00000000       0.00000000       0.00000000       0.00000000       0.00000000       1.26121223
Sm       0.00000000       0.00000000       4.06000000       0.00000000       0.00000000      -1.26121223
2
Properties=species:S:1:pos:R:3:forces:R:3 energy=-1.6034475782035764 pbc="F F F"
Sm       0.00000000       0.00000000       0.00000000       0.00000000       0.00000000       1.22850156
Sm       0.00000000       0.00000000       4.11878788       0.00000000       0.00000000      -1.22850156
2
Properties=species:S:1:pos:R:3:forces:R:3 energy=-1.5324380462484952 pbc="F F F"
Sm       0.00000000       0.00000000       0.00000000       0.00000000       0.00000000       1.18565190
Sm       0.00000000       0.00000000       4.17757576       0.00000000       0.00000000      -1.18565190
2
Properties=species:S:1:pos:R:3:forces:R:3 energy=-1.4642109472878508 pbc="F F F"
Sm       0.00000000       0.00000000       0.00000000       0.00000000       0.00000000       1.13418937
Sm       0.00000000       0.00000000       4.23636364       0.00000000       0.00000000      -1.13418937
2
Properties=species:S:1:pos:R:3:forces:R:3 energy=-1.3992143835210047 pbc="F F F"
Sm       0.00000000       0.00000000       0.00000000       0.00000000       0.00000000       1.07607043
Sm       0.00000000       0.00000000       4.29515152       0.00000000       0.00000000      -1.07607043
2
Properties=species:S:1:pos:R:3:forces:R:3 energy=-1.3377770878028228 pbc="F F F"
Sm       0.00000000       0.00000000       0.00000000       0.00000000       0.00000000       1.01361859
Sm       0.00000000       0.00000000       4.35393939       0.00000000       0.00000000      -1.01361859
2
Properties=species:S:1:pos:R:3:forces:R:3 energy=-1.2800747432675814 pbc="F F F"
Sm       0.00000000       0.00000000       0.00000000       0.00000000       0.00000000       0.94935179
Sm       0.00000000       0.00000000       4.41272727       0.00000000       0.00000000      -0.94935179
2
Properties=species:S:1:pos:R:3:forces:R:3 energy=-1.2261403366981765 pbc="F F F"
Sm       0.00000000       0.00000000       0.00000000       0.00000000       0.00000000       0.88584417
Sm       0.00000000       0.00000000       4.47151515       0.00000000       0.00000000      -0.88584417
2
Properties=species:S:1:pos:R:3:forces:R:3 energy=-1.1758568055640368 pbc="F F F"
Sm       0.00000000       0.00000000       0.00000000       0.00000000       0.00000000       0.82554382
Sm       0.00000000       0.00000000       4.53030303       0.00000000       0.00000000      -0.82554382
2
Properties=species:S:1:pos:R:3:forces:R:3 energy=-1.1289729055279236 pbc="F F F"
Sm       0.00000000       0.00000000       0.00000000       0.00000000       0.00000000       0.77052945
Sm       0.00000000       0.00000000       4.58909091       0.00000000       0.00000000      -0.77052945
2
Properties=species:S:1:pos:R:3:forces:R:3 energy=-1.085129256259803 pbc="F F F"
Sm       0.00000000       0.00000000       0.00000000       0.00000000       0.00000000       0.72229689
Sm       0.00000000       0.00000000       4.64787879       0.00000000       0.00000000      -0.72229689
2
Properties=species:S:1:pos:R:3:forces:R:3 energy=-1.0439014623534895 pbc="F F F"
Sm       0.00000000       0.00000000       0.00000000       0.00000000       0.00000000       0.68151224
Sm       0.00000000       0.00000000       4.70666667       0.00000000       0.00000000      -0.68151224
2
Properties=species:S:1:pos:R:3:forces:R:3 energy=-1.004857417316959 pbc="F F F"
Sm       0.00000000       0.00000000       0.00000000       0.00000000       0.00000000       0.64797807
Sm       0.00000000       0.00000000       4.76545455       0.00000000       0.00000000      -0.64797807
2
Properties=species:S:1:pos:R:3:forces:R:3 energy=-0.9675900354418208 pbc="F F F"
Sm       0.00000000       0.00000000       0.00000000       0.00000000       0.00000000       0.62073320
Sm       0.00000000       0.00000000       4.82424242       0.00000000       0.00000000      -0.62073320
2
Properties=species:S:1:pos:R:3:forces:R:3 energy=-0.9317811897481796 pbc="F F F"
Sm       0.00000000       0.00000000       0.00000000       0.00000000       0.00000000       0.59828734
Sm       0.00000000       0.00000000       4.88303030       0.00000000       0.00000000      -0.59828734
2
Properties=species:S:1:pos:R:3:forces:R:3 energy=-0.897187079752292 pbc="F F F"
Sm       0.00000000       0.00000000       0.00000000       0.00000000       0.00000000       0.57890582
Sm       0.00000000       0.00000000       4.94181818       0.00000000       0.00000000      -0.57890582
2
Properties=species:S:1:pos:R:3:forces:R:3 energy=-0.8636887356076226 pbc="F F F"
Sm       0.00000000       0.00000000       0.00000000       0.00000000       0.00000000       0.56083238
Sm       0.00000000       0.00000000       5.00060606       0.00000000       0.00000000      -0.56083238
2
Properties=species:S:1:pos:R:3:forces:R:3 energy=-0.8312520625700186 pbc="F F F"
Sm       0.00000000       0.00000000       0.00000000       0.00000000       0.00000000       0.54241771
Sm       0.00000000       0.00000000       5.05939394       0.00000000       0.00000000      -0.54241771
2
Properties=species:S:1:pos:R:3:forces:R:3 energy=-0.7999492177223464 pbc="F F F"
Sm       0.00000000       0.00000000       0.00000000       0.00000000       0.00000000       0.52217066
Sm       0.00000000       0.00000000       5.11818182       0.00000000       0.00000000      -0.52217066
2
Properties=species:S:1:pos:R:3:forces:R:3 energy=-0.7699200406016302 pbc="F F F"
Sm       0.00000000       0.00000000       0.00000000       0.00000000       0.00000000       0.49882153
Sm       0.00000000       0.00000000       5.17696970       0.00000000       0.00000000      -0.49882153
2
Properties=species:S:1:pos:R:3:forces:R:3 energy=-0.741380174685876 pbc="F F F"
Sm       0.00000000       0.00000000       0.00000000       0.00000000       0.00000000       0.47142664
Sm       0.00000000       0.00000000       5.23575758       0.00000000       0.00000000      -0.47142664
2
Properties=species:S:1:pos:R:3:forces:R:3 energy=-0.7145828152993081 pbc="F F F"
Sm       0.00000000       0.00000000       0.00000000       0.00000000       0.00000000       0.43944001
Sm       0.00000000       0.00000000       5.29454545       0.00000000       0.00000000      -0.43944001
2
Properties=species:S:1:pos:R:3:forces:R:3 energy=-0.6898016131667617 pbc="F F F"
Sm       0.00000000       0.00000000       0.00000000       0.00000000       0.00000000       0.40287253
Sm       0.00000000       0.00000000       5.35333333       0.00000000       0.00000000      -0.40287253
2
Properties=species:S:1:pos:R:3:forces:R:3 energy=-0.6672943676814177 pbc="F F F"
Sm       0.00000000       0.00000000       0.00000000       0.00000000       0.00000000       0.36229575
Sm       0.00000000       0.00000000       5.41212121       0.00000000       0.00000000      -0.36229575
2
Properties=species:S:1:pos:R:3:forces:R:3 energy=-0.6472619607204468 pbc="F F F"
Sm       0.00000000       0.00000000       0.00000000       0.00000000       0.00000000       0.31878147
Sm       0.00000000       0.00000000       5.47090909       0.00000000       0.00000000      -0.31878147
2
Properties=species:S:1:pos:R:3:forces:R:3 energy=-0.6298401502109637 pbc="F F F"
Sm       0.00000000       0.00000000       0.00000000       0.00000000       0.00000000       0.27377021
Sm       0.00000000       0.00000000       5.52969697       0.00000000       0.00000000      -0.27377021
2
Properties=species:S:1:pos:R:3:forces:R:3 energy=-0.6150707519922243 pbc="F F F"
Sm       0.00000000       0.00000000       0.00000000       0.00000000       0.00000000       0.22887316
Sm       0.00000000       0.00000000       5.58848485       0.00000000       0.00000000      -0.22887316
2
Properties=species:S:1:pos:R:3:forces:R:3 energy=-0.6029009196401389 pbc="F F F"
Sm       0.00000000       0.00000000       0.00000000       0.00000000       0.00000000       0.18577571
Sm       0.00000000       0.00000000       5.64727273       0.00000000       0.00000000      -0.18577571
2
Properties=species:S:1:pos:R:3:forces:R:3 energy=-0.5931655763521984 pbc="F F F"
Sm       0.00000000       0.00000000       0.00000000       0.00000000       0.00000000       0.14601526
Sm       0.00000000       0.00000000       5.70606061       0.00000000       0.00000000      -0.14601526
2
Properties=species:S:1:pos:R:3:forces:R:3 energy=-0.5856277762114763 pbc="F F F"
Sm       0.00000000       0.00000000       0.00000000       0.00000000       0.00000000       0.11100024
Sm       0.00000000       0.00000000       5.76484848       0.00000000       0.00000000      -0.11100024
2
Properties=species:S:1:pos:R:3:forces:R:3 energy=-0.5799892593764481 pbc="F F F"
Sm       0.00000000       0.00000000       0.00000000       0.00000000       0.00000000       0.08197998
Sm       0.00000000       0.00000000       5.82363636       0.00000000       0.00000000      -0.08197998
2
Properties=species:S:1:pos:R:3:forces:R:3 energy=-0.575859343624109 pbc="F F F"
Sm       0.00000000       0.00000000       0.00000000       0.00000000       0.00000000       0.05999187
Sm       0.00000000       0.00000000       5.88242424       0.00000000       0.00000000      -0.05999187
2
Properties=species:S:1:pos:R:3:forces:R:3 energy=-0.5727829232778846 pbc="F F F"
Sm       0.00000000       0.00000000       0.00000000       0.00000000       0.00000000       0.04593318
Sm       0.00000000       0.00000000       5.94121212       0.00000000       0.00000000      -0.04593318
2
Properties=species:S:1:pos:R:3:forces:R:3 energy=-0.5702848101435936 pbc="F F F"
Sm       0.00000000       0.00000000       0.00000000       0.00000000       0.00000000       0.04060670
Sm       0.00000000       0.00000000       6.00000000       0.00000000       0.00000000      -0.04060670
