2
Properties=species:S:1:pos:R:3:forces:R:3 energy=15578.048804985889 pbc="F F F"
Ta       0.00000000       0.00000000       0.00000000       0.00000000       0.00000000 -267688.28125000
Ta       0.00000000       0.00000000       0.18000000       0.00000000       0.00000000  267688.28125000
2
Properties=species:S:1:pos:R:3:forces:R:3 energy=6222.318824517138 pbc="F F F"
Ta       0.00000000       0.00000000       0.00000000       0.00000000       0.00000000  -88538.07812500
Ta       0.00000000       0.00000000       0.23878788       0.00000000       0.00000000   88538.07812500
2
Properties=species:S:1:pos:R:3:forces:R:3 energy=2888.032691704638 pbc="F F F"
Ta       0.00000000       0.00000000       0.00000000       0.00000000       0.00000000  -34442.47265625
Ta       0.00000000       0.00000000       0.29757576       0.00000000       0.00000000   34442.47265625
2
Properties=species:S:1:pos:R:3:forces:R:3 energy=1529.793433895306 pbc="F F F"
Ta       0.00000000       0.00000000       0.00000000       0.00000000       0.00000000  -14806.72753906
Ta       0.00000000       0.00000000       0.35636364       0.00000000       0.00000000   14806.72753906
2
Properties=species:S:1:pos:R:3:forces:R:3 energy=927.0630872187862 pbc="F F F"
Ta       0.00000000       0.00000000       0.00000000       0.00000000       0.00000000   -6819.34716797
Ta       0.00000000       0.00000000       0.41515152       0.00000000       0.00000000    6819.34716797
2
Properties=species:S:1:pos:R:3:forces:R:3 energy=643.0691907407469 pbc="F F F"
Ta       0.00000000       0.00000000       0.00000000       0.00000000       0.00000000   -3296.08203125
Ta       0.00000000       0.00000000       0.47393939       0.00000000       0.00000000    3296.08203125
2
Properties=species:S:1:pos:R:3:forces:R:3 energy=503.99961066895753 pbc="F F F"
Ta       0.00000000       0.00000000       0.00000000       0.00000000       0.00000000   -1631.75268555
Ta       0.00000000       0.00000000       0.53272727       0.00000000       0.00000000    1631.75268555
2
Properties=species:S:1:pos:R:3:forces:R:3 energy=435.39194467233943 pbc="F F F"
Ta       0.00000000       0.00000000       0.00000000       0.00000000       0.00000000    -792.80572510
Ta       0.00000000       0.00000000       0.59151515       0.00000000       0.00000000     792.80572510
2
Properties=species:S:1:pos:R:3:forces:R:3 energy=403.26120739933015 pbc="F F F"
Ta       0.00000000       0.00000000       0.00000000       0.00000000       0.00000000    -345.34698486
Ta       0.00000000       0.00000000       0.65030303       0.00000000       0.00000000     345.34698486
2
Properties=species:S:1:pos:R:3:forces:R:3 energy=390.81772599836717 pbc="F F F"
Ta       0.00000000       0.00000000       0.00000000       0.00000000       0.00000000    -103.98806763
Ta       0.00000000       0.00000000       0.70909091       0.00000000       0.00000000     103.98806763
2
Properties=species:S:1:pos:R:3:forces:R:3 energy=388.4611281676686 pbc="F F F"
Ta       0.00000000       0.00000000       0.00000000       0.00000000       0.00000000       4.34306383
Ta       0.00000000       0.00000000       0.76787879       0.00000000       0.00000000      -4.34306383
2
Properties=species:S:1:pos:R:3:forces:R:3 energy=389.11273959716397 pbc="F F F"
Ta       0.00000000       0.00000000       0.00000000       0.00000000       0.00000000      -1.09040821
Ta       0.00000000       0.00000000       0.82666667       0.00000000       0.00000000       1.09040821
2
Properties=species:S:1:pos:R:3:forces:R:3 energy=386.04688281245785 pbc="F F F"
Ta       0.00000000       0.00000000       0.00000000       0.00000000       0.00000000    -123.34658813
Ta       0.00000000       0.00000000       0.88545455       0.00000000       0.00000000     123.34658813
2
Properties=species:S:1:pos:R:3:forces:R:3 energy=372.23416939215156 pbc="F F F"
Ta       0.00000000       0.00000000       0.00000000       0.00000000       0.00000000    -363.81243896
Ta       0.00000000       0.00000000       0.94424242       0.00000000       0.00000000     363.81243896
2
Properties=species:S:1:pos:R:3:forces:R:3 energy=342.2774741174471 pbc="F F F"
Ta       0.00000000       0.00000000       0.00000000       0.00000000       0.00000000    -656.00817871
Ta       0.00000000       0.00000000       1.00303030       0.00000000       0.00000000     656.00817871
2
Properties=species:S:1:pos:R:3:forces:R:3 energy=295.77018079007826 pbc="F F F"
Ta       0.00000000       0.00000000       0.00000000       0.00000000       0.00000000    -913.66705322
Ta       0.00000000       0.00000000       1.06181818       0.00000000       0.00000000     913.66705322
2
Properties=species:S:1:pos:R:3:forces:R:3 energy=237.10715639458607 pbc="F F F"
Ta       0.00000000       0.00000000       0.00000000       0.00000000       0.00000000   -1055.74145508
Ta       0.00000000       0.00000000       1.12060606       0.00000000       0.00000000    1055.74145508
2
Properties=species:S:1:pos:R:3:forces:R:3 energy=175.10413581009087 pbc="F F F"
Ta       0.00000000       0.00000000       0.00000000       0.00000000       0.00000000   -1025.88342285
Ta       0.00000000       0.00000000       1.17939394       0.00000000       0.00000000    1025.88342285
2
Properties=species:S:1:pos:R:3:forces:R:3 energy=119.10257263635611 pbc="F F F"
Ta       0.00000000       0.00000000       0.00000000       0.00000000       0.00000000    -863.70574951
Ta       0.00000000       0.00000000       1.23818182       0.00000000       0.00000000     863.70574951
2
Properties=species:S:1:pos:R:3:forces:R:3 energy=74.5454143022588 pbc="F F F"
Ta       0.00000000       0.00000000       0.00000000       0.00000000       0.00000000    -650.77716064
Ta       0.00000000       0.00000000       1.29696970       0.00000000       0.00000000     650.77716064
2
Properties=species:S:1:pos:R:3:forces:R:3 energy=42.059190548919794 pbc="F F F"
Ta       0.00000000       0.00000000       0.00000000       0.00000000       0.00000000    -462.01193237
Ta       0.00000000       0.00000000       1.35575758       0.00000000       0.00000000     462.01193237
2
Properties=species:S:1:pos:R:3:forces:R:3 energy=19.502635576890533 pbc="F F F"
Ta       0.00000000       0.00000000       0.00000000       0.00000000       0.00000000    -310.12988281
Ta       0.00000000       0.00000000       1.41454545       0.00000000       0.00000000     310.12988281
2
Properties=species:S:1:pos:R:3:forces:R:3 energy=5.023525566885571 pbc="F F F"
Ta       0.00000000       0.00000000       0.00000000       0.00000000       0.00000000    -187.27864075
Ta       0.00000000       0.00000000       1.47333333       0.00000000       0.00000000     187.27864075
2
Properties=species:S:1:pos:R:3:forces:R:3 energy=-3.2116688615793225 pbc="F F F"
Ta       0.00000000       0.00000000       0.00000000       0.00000000       0.00000000    -100.65192413
Ta       0.00000000       0.00000000       1.53212121       0.00000000       0.00000000     100.65192413
2
Properties=species:S:1:pos:R:3:forces:R:3 energy=-7.549555298558593 pbc="F F F"
Ta       0.00000000       0.00000000       0.00000000       0.00000000       0.00000000     -50.59666443
Ta       0.00000000       0.00000000       1.59090909       0.00000000       0.00000000      50.59666443
2
Properties=species:S:1:pos:R:3:forces:R:3 energy=-9.529828918262156 pbc="F F F"
Ta       0.00000000       0.00000000       0.00000000       0.00000000       0.00000000     -20.06888390
Ta       0.00000000       0.00000000       1.64969697       0.00000000       0.00000000      20.06888390
2
Properties=species:S:1:pos:R:3:forces:R:3 energy=-10.274673384217312 pbc="F F F"
Ta       0.00000000       0.00000000       0.00000000       0.00000000       0.00000000      -7.69884729
Ta       0.00000000       0.00000000       1.70848485       0.00000000       0.00000000       7.69884729
2
Properties=species:S:1:pos:R:3:forces:R:3 energy=-10.608011219675044 pbc="F F F"
Ta       0.00000000       0.00000000       0.00000000       0.00000000       0.00000000      -4.34286261
Ta       0.00000000       0.00000000       1.76727273       0.00000000       0.00000000       4.34286261
2
Properties=species:S:1:pos:R:3:forces:R:3 energy=-10.822268388229492 pbc="F F F"
Ta       0.00000000       0.00000000       0.00000000       0.00000000       0.00000000      -3.06027794
Ta       0.00000000       0.00000000       1.82606061       0.00000000       0.00000000       3.06027794
2
Properties=species:S:1:pos:R:3:forces:R:3 energy=-10.974991359761429 pbc="F F F"
Ta       0.00000000       0.00000000       0.00000000       0.00000000       0.00000000      -2.18238735
Ta       0.00000000       0.00000000       1.88484848       0.00000000       0.00000000       2.18238735
2
Properties=species:S:1:pos:R:3:forces:R:3 energy=-11.084888217615976 pbc="F F F"
Ta       0.00000000       0.00000000       0.00000000       0.00000000       0.00000000      -1.61110651
Ta       0.00000000       0.00000000       1.94363636       0.00000000       0.00000000       1.61110651
2
Properties=species:S:1:pos:R:3:forces:R:3 energy=-11.170558402293915 pbc="F F F"
Ta       0.00000000       0.00000000       0.00000000       0.00000000       0.00000000      -1.34868085
Ta       0.00000000       0.00000000       2.00242424       0.00000000       0.00000000       1.34868085
2
Properties=species:S:1:pos:R:3:forces:R:3 energy=-11.247429490540464 pbc="F F F"
Ta       0.00000000       0.00000000       0.00000000       0.00000000       0.00000000      -1.28753448
Ta       0.00000000       0.00000000       2.06121212       0.00000000       0.00000000       1.28753448
2
Properties=species:S:1:pos:R:3:forces:R:3 energy=-11.322905014464988 pbc="F F F"
Ta       0.00000000       0.00000000       0.00000000       0.00000000       0.00000000      -1.27656639
Ta       0.00000000       0.00000000       2.12000000       0.00000000       0.00000000       1.27656639
2
Properties=species:S:1:pos:R:3:forces:R:3 energy=-11.395960300035831 pbc="F F F"
Ta       0.00000000       0.00000000       0.00000000       0.00000000       0.00000000      -1.18754518
Ta       0.00000000       0.00000000       2.17878788       0.00000000       0.00000000       1.18754518
2
Properties=species:S:1:pos:R:3:forces:R:3 energy=-11.459420921735084 pbc="F F F"
Ta       0.00000000       0.00000000       0.00000000       0.00000000       0.00000000      -0.94172072
Ta       0.00000000       0.00000000       2.23757576       0.00000000       0.00000000       0.94172072
2
Properties=species:S:1:pos:R:3:forces:R:3 energy=-11.503135073165698 pbc="F F F"
Ta       0.00000000       0.00000000       0.00000000       0.00000000       0.00000000      -0.51670164
Ta       0.00000000       0.00000000       2.29636364       0.00000000       0.00000000       0.51670164
2
Properties=species:S:1:pos:R:3:forces:R:3 energy=-11.517250864008165 pbc="F F F"
Ta       0.00000000       0.00000000       0.00000000       0.00000000       0.00000000       0.05618042
Ta       0.00000000       0.00000000       2.35515152       0.00000000       0.00000000      -0.05618042
2
Properties=species:S:1:pos:R:3:forces:R:3 energy=-11.494983635636745 pbc="F F F"
Ta       0.00000000       0.00000000       0.00000000       0.00000000       0.00000000       0.70774651
Ta       0.00000000       0.00000000       2.41393939       0.00000000       0.00000000      -0.70774651
2
Properties=species:S:1:pos:R:3:forces:R:3 energy=-11.43404374129198 pbc="F F F"
Ta       0.00000000       0.00000000       0.00000000       0.00000000       0.00000000       1.35966849
Ta       0.00000000       0.00000000       2.47272727       0.00000000       0.00000000      -1.35966849
2
Properties=species:S:1:pos:R:3:forces:R:3 energy=-11.33628419644315 pbc="F F F"
Ta       0.00000000       0.00000000       0.00000000       0.00000000       0.00000000       1.95330012
Ta       0.00000000       0.00000000       2.53151515       0.00000000       0.00000000      -1.95330012
2
Properties=species:S:1:pos:R:3:forces:R:3 energy=-11.20603072188063 pbc="F F F"
Ta       0.00000000       0.00000000       0.00000000       0.00000000       0.00000000       2.46382070
Ta       0.00000000       0.00000000       2.59030303       0.00000000       0.00000000      -2.46382070
2
Properties=species:S:1:pos:R:3:forces:R:3 energy=-11.048137987084932 pbc="F F F"
Ta       0.00000000       0.00000000       0.00000000       0.00000000       0.00000000       2.89624214
Ta       0.00000000       0.00000000       2.64909091       0.00000000       0.00000000      -2.89624214
2
Properties=species:S:1:pos:R:3:forces:R:3 energy=-10.866648309506804 pbc="F F F"
Ta       0.00000000       0.00000000       0.00000000       0.00000000       0.00000000       3.27005911
Ta       0.00000000       0.00000000       2.70787879       0.00000000       0.00000000      -3.27005911
2
Properties=species:S:1:pos:R:3:forces:R:3 energy=-10.664476925564303 pbc="F F F"
Ta       0.00000000       0.00000000       0.00000000       0.00000000       0.00000000       3.60144901
Ta       0.00000000       0.00000000       2.76666667       0.00000000       0.00000000      -3.60144901
2
Properties=species:S:1:pos:R:3:forces:R:3 energy=-10.444024103194717 pbc="F F F"
Ta       0.00000000       0.00000000       0.00000000       0.00000000       0.00000000       3.89036822
Ta       0.00000000       0.00000000       2.82545455       0.00000000       0.00000000      -3.89036822
2
Properties=species:S:1:pos:R:3:forces:R:3 energy=-10.20827280531348 pbc="F F F"
Ta       0.00000000       0.00000000       0.00000000       0.00000000       0.00000000       4.11722374
Ta       0.00000000       0.00000000       2.88424242       0.00000000       0.00000000      -4.11722374
2
Properties=species:S:1:pos:R:3:forces:R:3 energy=-9.961782183422807 pbc="F F F"
Ta       0.00000000       0.00000000       0.00000000       0.00000000       0.00000000       4.25002241
Ta       0.00000000       0.00000000       2.94303030       0.00000000       0.00000000      -4.25002241
2
Properties=species:S:1:pos:R:3:forces:R:3 energy=-9.71100391752512 pbc="F F F"
Ta       0.00000000       0.00000000       0.00000000       0.00000000       0.00000000       4.25939178
Ta       0.00000000       0.00000000       3.00181818       0.00000000       0.00000000      -4.25939178
2
Properties=species:S:1:pos:R:3:forces:R:3 energy=-9.463619454440106 pbc="F F F"
Ta       0.00000000       0.00000000       0.00000000       0.00000000       0.00000000       4.13513803
Ta       0.00000000       0.00000000       3.06060606       0.00000000       0.00000000      -4.13513803
2
Properties=species:S:1:pos:R:3:forces:R:3 energy=-9.22710598288168 pbc="F F F"
Ta       0.00000000       0.00000000       0.00000000       0.00000000       0.00000000       3.89465475
Ta       0.00000000       0.00000000       3.11939394       0.00000000       0.00000000      -3.89465475
2
Properties=species:S:1:pos:R:3:forces:R:3 energy=-9.007237045231648 pbc="F F F"
Ta       0.00000000       0.00000000       0.00000000       0.00000000       0.00000000       3.57593012
Ta       0.00000000       0.00000000       3.17818182       0.00000000       0.00000000      -3.57593012
2
Properties=species:S:1:pos:R:3:forces:R:3 energy=-8.807349930824827 pbc="F F F"
Ta       0.00000000       0.00000000       0.00000000       0.00000000       0.00000000       3.22188139
Ta       0.00000000       0.00000000       3.23696970       0.00000000       0.00000000      -3.22188139
2
Properties=species:S:1:pos:R:3:forces:R:3 energy=-8.628375725618186 pbc="F F F"
Ta       0.00000000       0.00000000       0.00000000       0.00000000       0.00000000       2.86996531
Ta       0.00000000       0.00000000       3.29575758       0.00000000       0.00000000      -2.86996531
2
Properties=species:S:1:pos:R:3:forces:R:3 energy=-8.469316002714503 pbc="F F F"
Ta       0.00000000       0.00000000       0.00000000       0.00000000       0.00000000       2.54804301
Ta       0.00000000       0.00000000       3.35454545       0.00000000       0.00000000      -2.54804301
2
Properties=species:S:1:pos:R:3:forces:R:3 energy=-8.327880417284101 pbc="F F F"
Ta       0.00000000       0.00000000       0.00000000       0.00000000       0.00000000       2.27196836
Ta       0.00000000       0.00000000       3.41333333       0.00000000       0.00000000      -2.27196836
2
Properties=species:S:1:pos:R:3:forces:R:3 energy=-8.201204557533758 pbc="F F F"
Ta       0.00000000       0.00000000       0.00000000       0.00000000       0.00000000       2.04572797
Ta       0.00000000       0.00000000       3.47212121       0.00000000       0.00000000      -2.04572797
2
Properties=species:S:1:pos:R:3:forces:R:3 energy=-8.086476667254376 pbc="F F F"
Ta       0.00000000       0.00000000       0.00000000       0.00000000       0.00000000       1.86406016
Ta       0.00000000       0.00000000       3.53090909       0.00000000       0.00000000      -1.86406016
2
Properties=species:S:1:pos:R:3:forces:R:3 energy=-7.981378506066191 pbc="F F F"
Ta       0.00000000       0.00000000       0.00000000       0.00000000       0.00000000       1.71588957
Ta       0.00000000       0.00000000       3.58969697       0.00000000       0.00000000      -1.71588957
2
Properties=species:S:1:pos:R:3:forces:R:3 energy=-7.88433271137003 pbc="F F F"
Ta       0.00000000       0.00000000       0.00000000       0.00000000       0.00000000       1.58793485
Ta       0.00000000       0.00000000       3.64848485       0.00000000       0.00000000      -1.58793485
2
Properties=species:S:1:pos:R:3:forces:R:3 energy=-7.794522031634214 pbc="F F F"
Ta       0.00000000       0.00000000       0.00000000       0.00000000       0.00000000       1.46800375
Ta       0.00000000       0.00000000       3.70727273       0.00000000       0.00000000      -1.46800375
2
Properties=species:S:1:pos:R:3:forces:R:3 energy=-7.711746242929482 pbc="F F F"
Ta       0.00000000       0.00000000       0.00000000       0.00000000       0.00000000       1.34748542
Ta       0.00000000       0.00000000       3.76606061       0.00000000       0.00000000      -1.34748542
2
Properties=species:S:1:pos:R:3:forces:R:3 energy=-7.636179853640309 pbc="F F F"
Ta       0.00000000       0.00000000       0.00000000       0.00000000       0.00000000       1.22254443
Ta       0.00000000       0.00000000       3.82484848       0.00000000       0.00000000      -1.22254443
2
Properties=species:S:1:pos:R:3:forces:R:3 energy=-7.568075955247613 pbc="F F F"
Ta       0.00000000       0.00000000       0.00000000       0.00000000       0.00000000       1.09406412
Ta       0.00000000       0.00000000       3.88363636       0.00000000       0.00000000      -1.09406412
2
Properties=species:S:1:pos:R:3:forces:R:3 energy=-7.5075236135855326 pbc="F F F"
Ta       0.00000000       0.00000000       0.00000000       0.00000000       0.00000000       0.96669310
Ta       0.00000000       0.00000000       3.94242424       0.00000000       0.00000000      -0.96669310
2
Properties=species:S:1:pos:R:3:forces:R:3 energy=-7.454262995408221 pbc="F F F"
Ta       0.00000000       0.00000000       0.00000000       0.00000000       0.00000000       0.84718758
Ta       0.00000000       0.00000000       4.00121212       0.00000000       0.00000000      -0.84718758
2
Properties=species:S:1:pos:R:3:forces:R:3 energy=-7.407625782752003 pbc="F F F"
Ta       0.00000000       0.00000000       0.00000000       0.00000000       0.00000000       0.74237972
Ta       0.00000000       0.00000000       4.06000000       0.00000000       0.00000000      -0.74237972
2
Properties=species:S:1:pos:R:3:forces:R:3 energy=-7.366589545042698 pbc="F F F"
Ta       0.00000000       0.00000000       0.00000000       0.00000000       0.00000000       0.65722996
Ta       0.00000000       0.00000000       4.11878788       0.00000000       0.00000000      -0.65722996
2
Properties=species:S:1:pos:R:3:forces:R:3 energy=-7.329929957855042 pbc="F F F"
Ta       0.00000000       0.00000000       0.00000000       0.00000000       0.00000000       0.59345853
Ta       0.00000000       0.00000000       4.17757576       0.00000000       0.00000000      -0.59345853
2
Properties=species:S:1:pos:R:3:forces:R:3 energy=-7.296429676594912 pbc="F F F"
Ta       0.00000000       0.00000000       0.00000000       0.00000000       0.00000000       0.54913098
Ta       0.00000000       0.00000000       4.23636364       0.00000000       0.00000000      -0.54913098
2
Properties=species:S:1:pos:R:3:forces:R:3 energy=-7.265081895280722 pbc="F F F"
Ta       0.00000000       0.00000000       0.00000000       0.00000000       0.00000000       0.51919138
Ta       0.00000000       0.00000000       4.29515152       0.00000000       0.00000000      -0.51919138
2
Properties=species:S:1:pos:R:3:forces:R:3 energy=-7.235239773971987 pbc="F F F"
Ta       0.00000000       0.00000000       0.00000000       0.00000000       0.00000000       0.49669510
Ta       0.00000000       0.00000000       4.35393939       0.00000000       0.00000000      -0.49669510
2
Properties=species:S:1:pos:R:3:forces:R:3 energy=-7.206681632411459 pbc="F F F"
Ta       0.00000000       0.00000000       0.00000000       0.00000000       0.00000000       0.47431746
Ta       0.00000000       0.00000000       4.41272727       0.00000000       0.00000000      -0.47431746
2
Properties=species:S:1:pos:R:3:forces:R:3 energy=-7.179592988604229 pbc="F F F"
Ta       0.00000000       0.00000000       0.00000000       0.00000000       0.00000000       0.44579685
Ta       0.00000000       0.00000000       4.47151515       0.00000000       0.00000000      -0.44579685
2
Properties=species:S:1:pos:R:3:forces:R:3 energy=-7.154469716525099 pbc="F F F"
Ta       0.00000000       0.00000000       0.00000000       0.00000000       0.00000000       0.40698180
Ta       0.00000000       0.00000000       4.53030303       0.00000000       0.00000000      -0.40698180
2
Properties=species:S:1:pos:R:3:forces:R:3 energy=-7.13197547180828 pbc="F F F"
Ta       0.00000000       0.00000000       0.00000000       0.00000000       0.00000000       0.35634345
Ta       0.00000000       0.00000000       4.58909091       0.00000000       0.00000000      -0.35634345
2
Properties=species:S:1:pos:R:3:forces:R:3 energy=-7.112784815490163 pbc="F F F"
Ta       0.00000000       0.00000000       0.00000000       0.00000000       0.00000000       0.29495418
Ta       0.00000000       0.00000000       4.64787879       0.00000000       0.00000000      -0.29495418
2
Properties=species:S:1:pos:R:3:forces:R:3 energy=-7.097444482906685 pbc="F F F"
Ta       0.00000000       0.00000000       0.00000000       0.00000000       0.00000000       0.22601387
Ta       0.00000000       0.00000000       4.70666667       0.00000000       0.00000000      -0.22601387
2
Properties=species:S:1:pos:R:3:forces:R:3 energy=-7.086269401514615 pbc="F F F"
Ta       0.00000000       0.00000000       0.00000000       0.00000000       0.00000000       0.15411457
Ta       0.00000000       0.00000000       4.76545455       0.00000000       0.00000000      -0.15411457
2
Properties=species:S:1:pos:R:3:forces:R:3 energy=-7.079282056544737 pbc="F F F"
Ta       0.00000000       0.00000000       0.00000000       0.00000000       0.00000000       0.08435998
Ta       0.00000000       0.00000000       4.82424242       0.00000000       0.00000000      -0.08435998
2
Properties=species:S:1:pos:R:3:forces:R:3 energy=-7.076213009020687 pbc="F F F"
Ta       0.00000000       0.00000000       0.00000000       0.00000000       0.00000000       0.02158503
Ta       0.00000000       0.00000000       4.88303030       0.00000000       0.00000000      -0.02158503
2
Properties=species:S:1:pos:R:3:forces:R:3 energy=-7.07653129929549 pbc="F F F"
Ta       0.00000000       0.00000000       0.00000000       0.00000000       0.00000000      -0.03035113
Ta       0.00000000       0.00000000       4.94181818       0.00000000       0.00000000       0.03035113
2
Properties=species:S:1:pos:R:3:forces:R:3 energy=-7.079519275639348 pbc="F F F"
Ta       0.00000000       0.00000000       0.00000000       0.00000000       0.00000000      -0.06894870
Ta       0.00000000       0.00000000       5.00060606       0.00000000       0.00000000       0.06894870
2
Properties=species:S:1:pos:R:3:forces:R:3 energy=-7.084357935419672 pbc="F F F"
Ta       0.00000000       0.00000000       0.00000000       0.00000000       0.00000000      -0.09329955
Ta       0.00000000       0.00000000       5.05939394       0.00000000       0.00000000       0.09329955
2
Properties=species:S:1:pos:R:3:forces:R:3 energy=-7.0902212058098755 pbc="F F F"
Ta       0.00000000       0.00000000       0.00000000       0.00000000       0.00000000      -0.10402706
Ta       0.00000000       0.00000000       5.11818182       0.00000000       0.00000000       0.10402706
2
Properties=species:S:1:pos:R:3:forces:R:3 energy=-7.096357924934543 pbc="F F F"
Ta       0.00000000       0.00000000       0.00000000       0.00000000       0.00000000      -0.10301876
Ta       0.00000000       0.00000000       5.17696970       0.00000000       0.00000000       0.10301876
2
Properties=species:S:1:pos:R:3:forces:R:3 energy=-7.10215710520366 pbc="F F F"
Ta       0.00000000       0.00000000       0.00000000       0.00000000       0.00000000      -0.09303560
Ta       0.00000000       0.00000000       5.23575758       0.00000000       0.00000000       0.09303560
2
Properties=species:S:1:pos:R:3:forces:R:3 energy=-7.107181722226579 pbc="F F F"
Ta       0.00000000       0.00000000       0.00000000       0.00000000       0.00000000      -0.07722225
Ta       0.00000000       0.00000000       5.29454545       0.00000000       0.00000000       0.07722225
2
Properties=species:S:1:pos:R:3:forces:R:3 energy=-7.1111829692416135 pbc="F F F"
Ta       0.00000000       0.00000000       0.00000000       0.00000000       0.00000000      -0.05865660
Ta       0.00000000       0.00000000       5.35333333       0.00000000       0.00000000       0.05865660
2
Properties=species:S:1:pos:R:3:forces:R:3 energy=-7.114077273897779 pbc="F F F"
Ta       0.00000000       0.00000000       0.00000000       0.00000000       0.00000000      -0.03996595
Ta       0.00000000       0.00000000       5.41212121       0.00000000       0.00000000       0.03996595
2
Properties=species:S:1:pos:R:3:forces:R:3 energy=-7.115918161694636 pbc="F F F"
Ta       0.00000000       0.00000000       0.00000000       0.00000000       0.00000000      -0.02308313
Ta       0.00000000       0.00000000       5.47090909       0.00000000       0.00000000       0.02308313
2
Properties=species:S:1:pos:R:3:forces:R:3 energy=-7.11684994892497 pbc="F F F"
Ta       0.00000000       0.00000000       0.00000000       0.00000000       0.00000000      -0.00915969
Ta       0.00000000       0.00000000       5.52969697       0.00000000       0.00000000       0.00915969
2
Properties=species:S:1:pos:R:3:forces:R:3 energy=-7.117061422946176 pbc="F F F"
Ta       0.00000000       0.00000000       0.00000000       0.00000000       0.00000000       0.00138854
Ta       0.00000000       0.00000000       5.58848485       0.00000000       0.00000000      -0.00138854
2
Properties=species:S:1:pos:R:3:forces:R:3 energy=-7.116749650073575 pbc="F F F"
Ta       0.00000000       0.00000000       0.00000000       0.00000000       0.00000000       0.00871680
Ta       0.00000000       0.00000000       5.64727273       0.00000000       0.00000000      -0.00871680
2
Properties=species:S:1:pos:R:3:forces:R:3 energy=-7.116089378806726 pbc="F F F"
Ta       0.00000000       0.00000000       0.00000000       0.00000000       0.00000000       0.01335369
Ta       0.00000000       0.00000000       5.70606061       0.00000000       0.00000000      -0.01335369
2
Properties=species:S:1:pos:R:3:forces:R:3 energy=-7.1152192083840236 pbc="F F F"
Ta       0.00000000       0.00000000       0.00000000       0.00000000       0.00000000       0.01598845
Ta       0.00000000       0.00000000       5.76484848       0.00000000       0.00000000      -0.01598845
2
Properties=species:S:1:pos:R:3:forces:R:3 energy=-7.114235957019728 pbc="F F F"
Ta       0.00000000       0.00000000       0.00000000       0.00000000       0.00000000       0.01727933
Ta       0.00000000       0.00000000       5.82363636       0.00000000       0.00000000      -0.01727933
2
Properties=species:S:1:pos:R:3:forces:R:3 energy=-7.113203591929261 pbc="F F F"
Ta       0.00000000       0.00000000       0.00000000       0.00000000       0.00000000       0.01774463
Ta       0.00000000       0.00000000       5.88242424       0.00000000       0.00000000      -0.01774463
2
Properties=species:S:1:pos:R:3:forces:R:3 energy=-7.1121595470055965 pbc="F F F"
Ta       0.00000000       0.00000000       0.00000000       0.00000000       0.00000000       0.01769675
Ta       0.00000000       0.00000000       5.94121212       0.00000000       0.00000000      -0.01769675
2
Properties=species:S:1:pos:R:3:forces:R:3 energy=-7.111130439438546 pbc="F F F"
Ta       0.00000000       0.00000000       0.00000000       0.00000000       0.00000000       0.01725321
Ta       0.00000000       0.00000000       6.00000000       0.00000000       0.00000000      -0.01725321
