2
Properties=species:S:1:pos:R:3:forces:R:3 energy=9663.055254949648 pbc="F F F"
Te       0.00000000       0.00000000       0.00000000       0.00000000       0.00000000 -161277.07812500
Te       0.00000000       0.00000000       0.18000000       0.00000000       0.00000000  161277.07812500
2
Properties=species:S:1:pos:R:3:forces:R:3 energy=3944.5865049496483 pbc="F F F"
Te       0.00000000       0.00000000       0.00000000       0.00000000       0.00000000  -55246.54296875
Te       0.00000000       0.00000000       0.23878788       0.00000000       0.00000000   55246.54296875
2
Properties=species:S:1:pos:R:3:forces:R:3 energy=1831.7799863949608 pbc="F F F"
Te       0.00000000       0.00000000       0.00000000       0.00000000       0.00000000  -22295.90429688
Te       0.00000000       0.00000000       0.29757576       0.00000000       0.00000000   22295.90429688
2
Properties=species:S:1:pos:R:3:forces:R:3 energy=938.0401792692223 pbc="F F F"
Te       0.00000000       0.00000000       0.00000000       0.00000000       0.00000000   -9955.09082031
Te       0.00000000       0.00000000       0.35636364       0.00000000       0.00000000    9955.09082031
2
Properties=species:S:1:pos:R:3:forces:R:3 energy=526.0923643341517 pbc="F F F"
Te       0.00000000       0.00000000       0.00000000       0.00000000       0.00000000   -4760.01513672
Te       0.00000000       0.00000000       0.41515152       0.00000000       0.00000000    4760.01513672
2
Properties=species:S:1:pos:R:3:forces:R:3 energy=324.4568663062837 pbc="F F F"
Te       0.00000000       0.00000000       0.00000000       0.00000000       0.00000000   -2393.73095703
Te       0.00000000       0.00000000       0.47393939       0.00000000       0.00000000    2393.73095703
2
Properties=species:S:1:pos:R:3:forces:R:3 energy=221.19884021174724 pbc="F F F"
Te       0.00000000       0.00000000       0.00000000       0.00000000       0.00000000   -1252.01745605
Te       0.00000000       0.00000000       0.53272727       0.00000000       0.00000000    1252.01745605
2
Properties=species:S:1:pos:R:3:forces:R:3 energy=166.31779778513146 pbc="F F F"
Te       0.00000000       0.00000000       0.00000000       0.00000000       0.00000000    -679.37139893
Te       0.00000000       0.00000000       0.59151515       0.00000000       0.00000000     679.37139893
2
Properties=species:S:1:pos:R:3:forces:R:3 energy=135.8275024605064 pbc="F F F"
Te       0.00000000       0.00000000       0.00000000       0.00000000       0.00000000    -391.93237305
Te       0.00000000       0.00000000       0.65030303       0.00000000       0.00000000     391.93237305
2
Properties=species:S:1:pos:R:3:forces:R:3 energy=117.38022934232822 pbc="F F F"
Te       0.00000000       0.00000000       0.00000000       0.00000000       0.00000000    -243.71800232
Te       0.00000000       0.00000000       0.70909091       0.00000000       0.00000000     243.71800232
2
Properties=species:S:1:pos:R:3:forces:R:3 energy=107.53337438783026 pbc="F F F"
Te       0.00000000       0.00000000       0.00000000       0.00000000       0.00000000    -120.16380310
Te       0.00000000       0.00000000       0.76787879       0.00000000       0.00000000     120.16380310
2
Properties=species:S:1:pos:R:3:forces:R:3 energy=101.27045049760525 pbc="F F F"
Te       0.00000000       0.00000000       0.00000000       0.00000000       0.00000000     -92.36307526
Te       0.00000000       0.00000000       0.82666667       0.00000000       0.00000000      92.36307526
2
Properties=species:S:1:pos:R:3:forces:R:3 energy=96.45669971406159 pbc="F F F"
Te       0.00000000       0.00000000       0.00000000       0.00000000       0.00000000     -76.36426544
Te       0.00000000       0.00000000       0.88545455       0.00000000       0.00000000      76.36426544
2
Properties=species:S:1:pos:R:3:forces:R:3 energy=91.6418809958494 pbc="F F F"
Te       0.00000000       0.00000000       0.00000000       0.00000000       0.00000000     -92.31596375
Te       0.00000000       0.00000000       0.94424242       0.00000000       0.00000000      92.31596375
2
Properties=species:S:1:pos:R:3:forces:R:3 energy=85.1910456600173 pbc="F F F"
Te       0.00000000       0.00000000       0.00000000       0.00000000       0.00000000    -128.97944641
Te       0.00000000       0.00000000       1.00303030       0.00000000       0.00000000     128.97944641
2
Properties=species:S:1:pos:R:3:forces:R:3 energy=76.49001988392936 pbc="F F F"
Te       0.00000000       0.00000000       0.00000000       0.00000000       0.00000000    -165.07687378
Te       0.00000000       0.00000000       1.06181818       0.00000000       0.00000000     165.07687378
2
Properties=species:S:1:pos:R:3:forces:R:3 energy=66.15444247969131 pbc="F F F"
Te       0.00000000       0.00000000       0.00000000       0.00000000       0.00000000    -182.81509399
Te       0.00000000       0.00000000       1.12060606       0.00000000       0.00000000     182.81509399
2
Properties=species:S:1:pos:R:3:forces:R:3 energy=55.39654422471087 pbc="F F F"
Te       0.00000000       0.00000000       0.00000000       0.00000000       0.00000000    -180.39793396
Te       0.00000000       0.00000000       1.17939394       0.00000000       0.00000000     180.39793396
2
Properties=species:S:1:pos:R:3:forces:R:3 energy=45.20668930773665 pbc="F F F"
Te       0.00000000       0.00000000       0.00000000       0.00000000       0.00000000    -164.29440308
Te       0.00000000       0.00000000       1.23818182       0.00000000       0.00000000     164.29440308
2
Properties=species:S:1:pos:R:3:forces:R:3 energy=36.27710808642657 pbc="F F F"
Te       0.00000000       0.00000000       0.00000000       0.00000000       0.00000000    -138.64024353
Te       0.00000000       0.00000000       1.29696970       0.00000000       0.00000000     138.64024353
2
Properties=species:S:1:pos:R:3:forces:R:3 energy=28.83514713312417 pbc="F F F"
Te       0.00000000       0.00000000       0.00000000       0.00000000       0.00000000    -116.26436615
Te       0.00000000       0.00000000       1.35575758       0.00000000       0.00000000     116.26436615
2
Properties=species:S:1:pos:R:3:forces:R:3 energy=22.424868298665384 pbc="F F F"
Te       0.00000000       0.00000000       0.00000000       0.00000000       0.00000000    -102.53725433
Te       0.00000000       0.00000000       1.41454545       0.00000000       0.00000000     102.53725433
2
Properties=species:S:1:pos:R:3:forces:R:3 energy=16.807490797777742 pbc="F F F"
Te       0.00000000       0.00000000       0.00000000       0.00000000       0.00000000     -87.65386200
Te       0.00000000       0.00000000       1.47333333       0.00000000       0.00000000      87.65386200
2
Properties=species:S:1:pos:R:3:forces:R:3 energy=12.224210568933596 pbc="F F F"
Te       0.00000000       0.00000000       0.00000000       0.00000000       0.00000000     -67.87303162
Te       0.00000000       0.00000000       1.53212121       0.00000000       0.00000000      67.87303162
2
Properties=species:S:1:pos:R:3:forces:R:3 energy=8.7859335191722 pbc="F F F"
Te       0.00000000       0.00000000       0.00000000       0.00000000       0.00000000     -50.02075958
Te       0.00000000       0.00000000       1.59090909       0.00000000       0.00000000      50.02075958
2
Properties=species:S:1:pos:R:3:forces:R:3 energy=6.218121940953743 pbc="F F F"
Te       0.00000000       0.00000000       0.00000000       0.00000000       0.00000000     -38.32340240
Te       0.00000000       0.00000000       1.64969697       0.00000000       0.00000000      38.32340240
2
Properties=species:S:1:pos:R:3:forces:R:3 energy=4.189625692151552 pbc="F F F"
Te       0.00000000       0.00000000       0.00000000       0.00000000       0.00000000     -31.23062706
Te       0.00000000       0.00000000       1.70848485       0.00000000       0.00000000      31.23062706
2
Properties=species:S:1:pos:R:3:forces:R:3 energy=2.50458227194994 pbc="F F F"
Te       0.00000000       0.00000000       0.00000000       0.00000000       0.00000000     -26.29668999
Te       0.00000000       0.00000000       1.76727273       0.00000000       0.00000000      26.29668999
2
Properties=species:S:1:pos:R:3:forces:R:3 energy=1.0849548852238273 pbc="F F F"
Te       0.00000000       0.00000000       0.00000000       0.00000000       0.00000000     -22.05484390
Te       0.00000000       0.00000000       1.82606061       0.00000000       0.00000000      22.05484390
2
Properties=species:S:1:pos:R:3:forces:R:3 energy=-0.09399156280738333 pbc="F F F"
Te       0.00000000       0.00000000       0.00000000       0.00000000       0.00000000     -18.10999107
Te       0.00000000       0.00000000       1.88484848       0.00000000       0.00000000      18.10999107
2
Properties=species:S:1:pos:R:3:forces:R:3 energy=-1.0532197877885017 pbc="F F F"
Te       0.00000000       0.00000000       0.00000000       0.00000000       0.00000000     -14.61546040
Te       0.00000000       0.00000000       1.94363636       0.00000000       0.00000000      14.61546040
2
Properties=species:S:1:pos:R:3:forces:R:3 energy=-1.8239425505676918 pbc="F F F"
Te       0.00000000       0.00000000       0.00000000       0.00000000       0.00000000     -11.70193291
Te       0.00000000       0.00000000       2.00242424       0.00000000       0.00000000      11.70193291
2
Properties=species:S:1:pos:R:3:forces:R:3 energy=-2.4395215416669687 pbc="F F F"
Te       0.00000000       0.00000000       0.00000000       0.00000000       0.00000000      -9.31912518
Te       0.00000000       0.00000000       2.06121212       0.00000000       0.00000000       9.31912518
2
Properties=species:S:1:pos:R:3:forces:R:3 energy=-2.927771217213546 pbc="F F F"
Te       0.00000000       0.00000000       0.00000000       0.00000000       0.00000000      -7.35274792
Te       0.00000000       0.00000000       2.12000000       0.00000000       0.00000000       7.35274792
2
Properties=species:S:1:pos:R:3:forces:R:3 energy=-3.3105476892817327 pbc="F F F"
Te       0.00000000       0.00000000       0.00000000       0.00000000       0.00000000      -5.72068453
Te       0.00000000       0.00000000       2.17878788       0.00000000       0.00000000       5.72068453
2
Properties=species:S:1:pos:R:3:forces:R:3 energy=-3.606062793278987 pbc="F F F"
Te       0.00000000       0.00000000       0.00000000       0.00000000       0.00000000      -4.37844801
Te       0.00000000       0.00000000       2.23757576       0.00000000       0.00000000       4.37844801
2
Properties=species:S:1:pos:R:3:forces:R:3 energy=-3.8303616133980682 pbc="F F F"
Te       0.00000000       0.00000000       0.00000000       0.00000000       0.00000000      -3.29178524
Te       0.00000000       0.00000000       2.29636364       0.00000000       0.00000000       3.29178524
2
Properties=species:S:1:pos:R:3:forces:R:3 energy=-3.997293603122666 pbc="F F F"
Te       0.00000000       0.00000000       0.00000000       0.00000000       0.00000000      -2.41887212
Te       0.00000000       0.00000000       2.35515152       0.00000000       0.00000000       2.41887212
2
Properties=species:S:1:pos:R:3:forces:R:3 energy=-4.117923651659313 pbc="F F F"
Te       0.00000000       0.00000000       0.00000000       0.00000000       0.00000000      -1.70721591
Te       0.00000000       0.00000000       2.41393939       0.00000000       0.00000000       1.70721591
2
Properties=species:S:1:pos:R:3:forces:R:3 energy=-4.2000972956441425 pbc="F F F"
Te       0.00000000       0.00000000       0.00000000       0.00000000       0.00000000      -1.10186410
Te       0.00000000       0.00000000       2.47272727       0.00000000       0.00000000       1.10186410
2
Properties=species:S:1:pos:R:3:forces:R:3 energy=-4.248665458332039 pbc="F F F"
Te       0.00000000       0.00000000       0.00000000       0.00000000       0.00000000      -0.55781180
Te       0.00000000       0.00000000       2.53151515       0.00000000       0.00000000       0.55781180
2
Properties=species:S:1:pos:R:3:forces:R:3 energy=-4.266343738666121 pbc="F F F"
Te       0.00000000       0.00000000       0.00000000       0.00000000       0.00000000      -0.04810105
Te       0.00000000       0.00000000       2.59030303       0.00000000       0.00000000       0.04810105
2
Properties=species:S:1:pos:R:3:forces:R:3 energy=-4.254810380351579 pbc="F F F"
Te       0.00000000       0.00000000       0.00000000       0.00000000       0.00000000       0.43621927
Te       0.00000000       0.00000000       2.64909091       0.00000000       0.00000000      -0.43621927
2
Properties=species:S:1:pos:R:3:forces:R:3 energy=-4.215615974119374 pbc="F F F"
Te       0.00000000       0.00000000       0.00000000       0.00000000       0.00000000       0.89171714
Te       0.00000000       0.00000000       2.70787879       0.00000000       0.00000000      -0.89171714
2
Properties=species:S:1:pos:R:3:forces:R:3 energy=-4.15071376566645 pbc="F F F"
Te       0.00000000       0.00000000       0.00000000       0.00000000       0.00000000       1.30899012
Te       0.00000000       0.00000000       2.76666667       0.00000000       0.00000000      -1.30899012
2
Properties=species:S:1:pos:R:3:forces:R:3 energy=-4.062687663012899 pbc="F F F"
Te       0.00000000       0.00000000       0.00000000       0.00000000       0.00000000       1.67631209
Te       0.00000000       0.00000000       2.82545455       0.00000000       0.00000000      -1.67631209
2
Properties=species:S:1:pos:R:3:forces:R:3 energy=-3.954852012677451 pbc="F F F"
Te       0.00000000       0.00000000       0.00000000       0.00000000       0.00000000       1.98075485
Te       0.00000000       0.00000000       2.88424242       0.00000000       0.00000000      -1.98075485
2
Properties=species:S:1:pos:R:3:forces:R:3 energy=-3.8312812617837637 pbc="F F F"
Te       0.00000000       0.00000000       0.00000000       0.00000000       0.00000000       2.20971775
Te       0.00000000       0.00000000       2.94303030       0.00000000       0.00000000      -2.20971775
2
Properties=species:S:1:pos:R:3:forces:R:3 energy=-3.6966918973461813 pbc="F F F"
Te       0.00000000       0.00000000       0.00000000       0.00000000       0.00000000       2.35487556
Te       0.00000000       0.00000000       3.00181818       0.00000000       0.00000000      -2.35487556
2
Properties=species:S:1:pos:R:3:forces:R:3 energy=-3.5560383211145767 pbc="F F F"
Te       0.00000000       0.00000000       0.00000000       0.00000000       0.00000000       2.41707110
Te       0.00000000       0.00000000       3.06060606       0.00000000       0.00000000      -2.41707110
2
Properties=species:S:1:pos:R:3:forces:R:3 energy=-3.4139019658177325 pbc="F F F"
Te       0.00000000       0.00000000       0.00000000       0.00000000       0.00000000       2.40816021
Te       0.00000000       0.00000000       3.11939394       0.00000000       0.00000000      -2.40816021
2
Properties=species:S:1:pos:R:3:forces:R:3 energy=-3.2739033025982853 pbc="F F F"
Te       0.00000000       0.00000000       0.00000000       0.00000000       0.00000000       2.34791064
Te       0.00000000       0.00000000       3.17818182       0.00000000       0.00000000      -2.34791064
2
Properties=species:S:1:pos:R:3:forces:R:3 energy=-3.138427382542247 pbc="F F F"
Te       0.00000000       0.00000000       0.00000000       0.00000000       0.00000000       2.25778461
Te       0.00000000       0.00000000       3.23696970       0.00000000       0.00000000      -2.25778461
2
Properties=species:S:1:pos:R:3:forces:R:3 energy=-3.0086800821208346 pbc="F F F"
Te       0.00000000       0.00000000       0.00000000       0.00000000       0.00000000       2.15535593
Te       0.00000000       0.00000000       3.29575758       0.00000000       0.00000000      -2.15535593
2
Properties=species:S:1:pos:R:3:forces:R:3 energy=-2.8850314853010803 pbc="F F F"
Te       0.00000000       0.00000000       0.00000000       0.00000000       0.00000000       2.05159736
Te       0.00000000       0.00000000       3.35454545       0.00000000       0.00000000      -2.05159736
2
Properties=species:S:1:pos:R:3:forces:R:3 energy=-2.7673958624124477 pbc="F F F"
Te       0.00000000       0.00000000       0.00000000       0.00000000       0.00000000       1.95107245
Te       0.00000000       0.00000000       3.41333333       0.00000000       0.00000000      -1.95107245
2
Properties=species:S:1:pos:R:3:forces:R:3 energy=-2.6555659186596086 pbc="F F F"
Te       0.00000000       0.00000000       0.00000000       0.00000000       0.00000000       1.85384464
Te       0.00000000       0.00000000       3.47212121       0.00000000       0.00000000      -1.85384464
2
Properties=species:S:1:pos:R:3:forces:R:3 energy=-2.5494038260889367 pbc="F F F"
Te       0.00000000       0.00000000       0.00000000       0.00000000       0.00000000       1.75789440
Te       0.00000000       0.00000000       3.53090909       0.00000000       0.00000000      -1.75789440
2
Properties=species:S:1:pos:R:3:forces:R:3 energy=-2.4488972709615306 pbc="F F F"
Te       0.00000000       0.00000000       0.00000000       0.00000000       0.00000000       1.66112089
Te       0.00000000       0.00000000       3.58969697       0.00000000       0.00000000      -1.66112089
2
Properties=species:S:1:pos:R:3:forces:R:3 energy=-2.354130349343466 pbc="F F F"
Te       0.00000000       0.00000000       0.00000000       0.00000000       0.00000000       1.56263089
Te       0.00000000       0.00000000       3.64848485       0.00000000       0.00000000      -1.56263089
2
Properties=species:S:1:pos:R:3:forces:R:3 energy=-2.2651919271763874 pbc="F F F"
Te       0.00000000       0.00000000       0.00000000       0.00000000       0.00000000       1.46308875
Te       0.00000000       0.00000000       3.70727273       0.00000000       0.00000000      -1.46308875
2
Properties=species:S:1:pos:R:3:forces:R:3 energy=-2.182091806468601 pbc="F F F"
Te       0.00000000       0.00000000       0.00000000       0.00000000       0.00000000       1.36430442
Te       0.00000000       0.00000000       3.76606061       0.00000000       0.00000000      -1.36430442
2
Properties=species:S:1:pos:R:3:forces:R:3 energy=-2.104726246467948 pbc="F F F"
Te       0.00000000       0.00000000       0.00000000       0.00000000       0.00000000       1.26838338
Te       0.00000000       0.00000000       3.82484848       0.00000000       0.00000000      -1.26838338
2
Properties=species:S:1:pos:R:3:forces:R:3 energy=-2.0328745235994714 pbc="F F F"
Te       0.00000000       0.00000000       0.00000000       0.00000000       0.00000000       1.17680943
Te       0.00000000       0.00000000       3.88363636       0.00000000       0.00000000      -1.17680943
2
Properties=species:S:1:pos:R:3:forces:R:3 energy=-1.9662686403894025 pbc="F F F"
Te       0.00000000       0.00000000       0.00000000       0.00000000       0.00000000       1.08991802
Te       0.00000000       0.00000000       3.94242424       0.00000000       0.00000000      -1.08991802
2
Properties=species:S:1:pos:R:3:forces:R:3 energy=-1.904652330895667 pbc="F F F"
Te       0.00000000       0.00000000       0.00000000       0.00000000       0.00000000       1.00685608
Te       0.00000000       0.00000000       4.00121212       0.00000000       0.00000000      -1.00685608
2
Properties=species:S:1:pos:R:3:forces:R:3 energy=-1.8478433228030744 pbc="F F F"
Te       0.00000000       0.00000000       0.00000000       0.00000000       0.00000000       0.92603409
Te       0.00000000       0.00000000       4.06000000       0.00000000       0.00000000      -0.92603409
2
Properties=species:S:1:pos:R:3:forces:R:3 energy=-1.7957612850820963 pbc="F F F"
Te       0.00000000       0.00000000       0.00000000       0.00000000       0.00000000       0.84582990
Te       0.00000000       0.00000000       4.11878788       0.00000000       0.00000000      -0.84582990
2
Properties=species:S:1:pos:R:3:forces:R:3 energy=-1.7484017401613894 pbc="F F F"
Te       0.00000000       0.00000000       0.00000000       0.00000000       0.00000000       0.76526743
Te       0.00000000       0.00000000       4.17757576       0.00000000       0.00000000      -0.76526743
2
Properties=species:S:1:pos:R:3:forces:R:3 energy=-1.7057895299552284 pbc="F F F"
Te       0.00000000       0.00000000       0.00000000       0.00000000       0.00000000       0.68444425
Te       0.00000000       0.00000000       4.23636364       0.00000000       0.00000000      -0.68444425
2
Properties=species:S:1:pos:R:3:forces:R:3 energy=-1.6679085045574282 pbc="F F F"
Te       0.00000000       0.00000000       0.00000000       0.00000000       0.00000000       0.60459125
Te       0.00000000       0.00000000       4.29515152       0.00000000       0.00000000      -0.60459125
2
Properties=species:S:1:pos:R:3:forces:R:3 energy=-1.6346445833824959 pbc="F F F"
Te       0.00000000       0.00000000       0.00000000       0.00000000       0.00000000       0.52782434
Te       0.00000000       0.00000000       4.35393939       0.00000000       0.00000000      -0.52782434
2
Properties=species:S:1:pos:R:3:forces:R:3 energy=-1.6057408489414309 pbc="F F F"
Te       0.00000000       0.00000000       0.00000000       0.00000000       0.00000000       0.45662650
Te       0.00000000       0.00000000       4.41272727       0.00000000       0.00000000      -0.45662650
2
Properties=species:S:1:pos:R:3:forces:R:3 energy=-1.5808006367797882 pbc="F F F"
Te       0.00000000       0.00000000       0.00000000       0.00000000       0.00000000       0.39334074
Te       0.00000000       0.00000000       4.47151515       0.00000000       0.00000000      -0.39334074
2
Properties=species:S:1:pos:R:3:forces:R:3 energy=-1.5593030030069674 pbc="F F F"
Te       0.00000000       0.00000000       0.00000000       0.00000000       0.00000000       0.33973274
Te       0.00000000       0.00000000       4.53030303       0.00000000       0.00000000      -0.33973274
2
Properties=species:S:1:pos:R:3:forces:R:3 energy=-1.54064765986273 pbc="F F F"
Te       0.00000000       0.00000000       0.00000000       0.00000000       0.00000000       0.29674646
Te       0.00000000       0.00000000       4.58909091       0.00000000       0.00000000      -0.29674646
2
Properties=species:S:1:pos:R:3:forces:R:3 energy=-1.5242033976954295 pbc="F F F"
Te       0.00000000       0.00000000       0.00000000       0.00000000       0.00000000       0.26444125
Te       0.00000000       0.00000000       4.64787879       0.00000000       0.00000000      -0.26444125
2
Properties=species:S:1:pos:R:3:forces:R:3 energy=-1.5093608994290155 pbc="F F F"
Te       0.00000000       0.00000000       0.00000000       0.00000000       0.00000000       0.24204884
Te       0.00000000       0.00000000       4.70666667       0.00000000       0.00000000      -0.24204884
2
Properties=species:S:1:pos:R:3:forces:R:3 energy=-1.4955773442602183 pbc="F F F"
Te       0.00000000       0.00000000       0.00000000       0.00000000       0.00000000       0.22815026
Te       0.00000000       0.00000000       4.76545455       0.00000000       0.00000000      -0.22815026
2
Properties=species:S:1:pos:R:3:forces:R:3 energy=-1.4824055949275552 pbc="F F F"
Te       0.00000000       0.00000000       0.00000000       0.00000000       0.00000000       0.22088417
Te       0.00000000       0.00000000       4.82424242       0.00000000       0.00000000      -0.22088417
2
Properties=species:S:1:pos:R:3:forces:R:3 energy=-1.4695176502631508 pbc="F F F"
Te       0.00000000       0.00000000       0.00000000       0.00000000       0.00000000       0.21819812
Te       0.00000000       0.00000000       4.88303030       0.00000000       0.00000000      -0.21819812
2
Properties=species:S:1:pos:R:3:forces:R:3 energy=-1.4567007338768958 pbc="F F F"
Te       0.00000000       0.00000000       0.00000000       0.00000000       0.00000000       0.21808654
Te       0.00000000       0.00000000       4.94181818       0.00000000       0.00000000      -0.21808654
2
Properties=species:S:1:pos:R:3:forces:R:3 energy=-1.4438599943724604 pbc="F F F"
Te       0.00000000       0.00000000       0.00000000       0.00000000       0.00000000       0.21874084
Te       0.00000000       0.00000000       5.00060606       0.00000000       0.00000000      -0.21874084
2
Properties=species:S:1:pos:R:3:forces:R:3 energy=-1.430996327667703 pbc="F F F"
Te       0.00000000       0.00000000       0.00000000       0.00000000       0.00000000       0.21865690
Te       0.00000000       0.00000000       5.05939394       0.00000000       0.00000000      -0.21865690
2
Properties=species:S:1:pos:R:3:forces:R:3 energy=-1.4181891649235558 pbc="F F F"
Te       0.00000000       0.00000000       0.00000000       0.00000000       0.00000000       0.21663776
Te       0.00000000       0.00000000       5.11818182       0.00000000       0.00000000      -0.21663776
2
Properties=species:S:1:pos:R:3:forces:R:3 energy=-1.4055810767066903 pbc="F F F"
Te       0.00000000       0.00000000       0.00000000       0.00000000       0.00000000       0.21180172
Te       0.00000000       0.00000000       5.17696970       0.00000000       0.00000000      -0.21180172
2
Properties=species:S:1:pos:R:3:forces:R:3 energy=-1.3933539200442306 pbc="F F F"
Te       0.00000000       0.00000000       0.00000000       0.00000000       0.00000000       0.20359878
Te       0.00000000       0.00000000       5.23575758       0.00000000       0.00000000      -0.20359878
2
Properties=species:S:1:pos:R:3:forces:R:3 energy=-1.3817136239842005 pbc="F F F"
Te       0.00000000       0.00000000       0.00000000       0.00000000       0.00000000       0.19182593
Te       0.00000000       0.00000000       5.29454545       0.00000000       0.00000000      -0.19182593
2
Properties=species:S:1:pos:R:3:forces:R:3 energy=-1.3708658197993415 pbc="F F F"
Te       0.00000000       0.00000000       0.00000000       0.00000000       0.00000000       0.17665616
Te       0.00000000       0.00000000       5.35333333       0.00000000       0.00000000      -0.17665616
2
Properties=species:S:1:pos:R:3:forces:R:3 energy=-1.3609982950467951 pbc="F F F"
Te       0.00000000       0.00000000       0.00000000       0.00000000       0.00000000       0.15860893
Te       0.00000000       0.00000000       5.41212121       0.00000000       0.00000000      -0.15860893
2
Properties=species:S:1:pos:R:3:forces:R:3 energy=-1.3522579699201482 pbc="F F F"
Te       0.00000000       0.00000000       0.00000000       0.00000000       0.00000000       0.13848339
Te       0.00000000       0.00000000       5.47090909       0.00000000       0.00000000      -0.13848339
2
Properties=species:S:1:pos:R:3:forces:R:3 energy=-1.344737310558247 pbc="F F F"
Te       0.00000000       0.00000000       0.00000000       0.00000000       0.00000000       0.11725355
Te       0.00000000       0.00000000       5.52969697       0.00000000       0.00000000      -0.11725355
2
Properties=species:S:1:pos:R:3:forces:R:3 energy=-1.338473414968658 pbc="F F F"
Te       0.00000000       0.00000000       0.00000000       0.00000000       0.00000000       0.09591855
Te       0.00000000       0.00000000       5.58848485       0.00000000       0.00000000      -0.09591855
2
Properties=species:S:1:pos:R:3:forces:R:3 energy=-1.3334427087982579 pbc="F F F"
Te       0.00000000       0.00000000       0.00000000       0.00000000       0.00000000       0.07544173
Te       0.00000000       0.00000000       5.64727273       0.00000000       0.00000000      -0.07544173
2
Properties=species:S:1:pos:R:3:forces:R:3 energy=-1.3295720254615193 pbc="F F F"
Te       0.00000000       0.00000000       0.00000000       0.00000000       0.00000000       0.05662951
Te       0.00000000       0.00000000       5.70606061       0.00000000       0.00000000      -0.05662951
2
Properties=species:S:1:pos:R:3:forces:R:3 energy=-1.3267356607543135 pbc="F F F"
Te       0.00000000       0.00000000       0.00000000       0.00000000       0.00000000       0.04015816
Te       0.00000000       0.00000000       5.76484848       0.00000000       0.00000000      -0.04015816
2
Properties=species:S:1:pos:R:3:forces:R:3 energy=-1.3247910813718413 pbc="F F F"
Te       0.00000000       0.00000000       0.00000000       0.00000000       0.00000000       0.02658535
Te       0.00000000       0.00000000       5.82363636       0.00000000       0.00000000      -0.02658535
2
Properties=species:S:1:pos:R:3:forces:R:3 energy=-1.3235481293141524 pbc="F F F"
Te       0.00000000       0.00000000       0.00000000       0.00000000       0.00000000       0.01634252
Te       0.00000000       0.00000000       5.88242424       0.00000000       0.00000000      -0.01634252
2
Properties=species:S:1:pos:R:3:forces:R:3 energy=-1.3227970922980323 pbc="F F F"
Te       0.00000000       0.00000000       0.00000000       0.00000000       0.00000000       0.00979216
Te       0.00000000       0.00000000       5.94121212       0.00000000       0.00000000      -0.00979216
2
Properties=species:S:1:pos:R:3:forces:R:3 energy=-1.3223168155323803 pbc="F F F"
Te       0.00000000       0.00000000       0.00000000       0.00000000       0.00000000       0.00726031
Te       0.00000000       0.00000000       6.00000000       0.00000000       0.00000000      -0.00726031
