2
Properties=species:S:1:pos:R:3:forces:R:3 energy=9663.05525499083 pbc="F F F"
Te       0.00000000       0.00000000       0.00000000       0.00000000       0.00000000 -161277.10937500
Te       0.00000000       0.00000000       0.18000000       0.00000000       0.00000000  161277.10937500
2
Properties=species:S:1:pos:R:3:forces:R:3 energy=3944.58650499083 pbc="F F F"
Te       0.00000000       0.00000000       0.00000000       0.00000000       0.00000000  -55246.54296875
Te       0.00000000       0.00000000       0.23878788       0.00000000       0.00000000   55246.54296875
2
Properties=species:S:1:pos:R:3:forces:R:3 energy=1831.7802305767675 pbc="F F F"
Te       0.00000000       0.00000000       0.00000000       0.00000000       0.00000000  -22295.90820312
Te       0.00000000       0.00000000       0.29757576       0.00000000       0.00000000   22295.90820312
2
Properties=species:S:1:pos:R:3:forces:R:3 energy=938.0401182784157 pbc="F F F"
Te       0.00000000       0.00000000       0.00000000       0.00000000       0.00000000   -9955.08984375
Te       0.00000000       0.00000000       0.35636364       0.00000000       0.00000000    9955.08984375
2
Properties=species:S:1:pos:R:3:forces:R:3 energy=526.0923033433451 pbc="F F F"
Te       0.00000000       0.00000000       0.00000000       0.00000000       0.00000000   -4760.01464844
Te       0.00000000       0.00000000       0.41515152       0.00000000       0.00000000    4760.01464844
2
Properties=species:S:1:pos:R:3:forces:R:3 energy=324.45680531547697 pbc="F F F"
Te       0.00000000       0.00000000       0.00000000       0.00000000       0.00000000   -2393.73071289
Te       0.00000000       0.00000000       0.47393939       0.00000000       0.00000000    2393.73071289
2
Properties=species:S:1:pos:R:3:forces:R:3 energy=221.19879447656172 pbc="F F F"
Te       0.00000000       0.00000000       0.00000000       0.00000000       0.00000000   -1252.01745605
Te       0.00000000       0.00000000       0.53272727       0.00000000       0.00000000    1252.01745605
2
Properties=species:S:1:pos:R:3:forces:R:3 energy=166.31784360584814 pbc="F F F"
Te       0.00000000       0.00000000       0.00000000       0.00000000       0.00000000    -679.37133789
Te       0.00000000       0.00000000       0.59151515       0.00000000       0.00000000     679.37133789
2
Properties=species:S:1:pos:R:3:forces:R:3 energy=135.8274109489537 pbc="F F F"
Te       0.00000000       0.00000000       0.00000000       0.00000000       0.00000000    -391.93225098
Te       0.00000000       0.00000000       0.65030303       0.00000000       0.00000000     391.93225098
2
Properties=species:S:1:pos:R:3:forces:R:3 energy=117.38013020454882 pbc="F F F"
Te       0.00000000       0.00000000       0.00000000       0.00000000       0.00000000    -243.71670532
Te       0.00000000       0.00000000       0.70909091       0.00000000       0.00000000     243.71670532
2
Properties=species:S:1:pos:R:3:forces:R:3 energy=107.5332599912618 pbc="F F F"
Te       0.00000000       0.00000000       0.00000000       0.00000000       0.00000000    -120.16391754
Te       0.00000000       0.00000000       0.76787879       0.00000000       0.00000000     120.16391754
2
Properties=species:S:1:pos:R:3:forces:R:3 energy=101.27032847164226 pbc="F F F"
Te       0.00000000       0.00000000       0.00000000       0.00000000       0.00000000     -92.36261749
Te       0.00000000       0.00000000       0.82666667       0.00000000       0.00000000      92.36261749
2
Properties=species:S:1:pos:R:3:forces:R:3 energy=96.45661583190343 pbc="F F F"
Te       0.00000000       0.00000000       0.00000000       0.00000000       0.00000000     -76.36395264
Te       0.00000000       0.00000000       0.88545455       0.00000000       0.00000000      76.36395264
2
Properties=species:S:1:pos:R:3:forces:R:3 energy=91.6418810370311 pbc="F F F"
Te       0.00000000       0.00000000       0.00000000       0.00000000       0.00000000     -92.31602478
Te       0.00000000       0.00000000       0.94424242       0.00000000       0.00000000      92.31602478
2
Properties=species:S:1:pos:R:3:forces:R:3 energy=85.19112962453882 pbc="F F F"
Te       0.00000000       0.00000000       0.00000000       0.00000000       0.00000000    -128.97962952
Te       0.00000000       0.00000000       1.00303030       0.00000000       0.00000000     128.97962952
2
Properties=species:S:1:pos:R:3:forces:R:3 energy=76.48994363433356 pbc="F F F"
Te       0.00000000       0.00000000       0.00000000       0.00000000       0.00000000    -165.07664490
Te       0.00000000       0.00000000       1.06181818       0.00000000       0.00000000     165.07664490
2
Properties=species:S:1:pos:R:3:forces:R:3 energy=66.15447304161894 pbc="F F F"
Te       0.00000000       0.00000000       0.00000000       0.00000000       0.00000000    -182.81510925
Te       0.00000000       0.00000000       1.12060606       0.00000000       0.00000000     182.81510925
2
Properties=species:S:1:pos:R:3:forces:R:3 energy=55.396529010271315 pbc="F F F"
Te       0.00000000       0.00000000       0.00000000       0.00000000       0.00000000    -180.39785767
Te       0.00000000       0.00000000       1.17939394       0.00000000       0.00000000     180.39785767
2
Properties=species:S:1:pos:R:3:forces:R:3 energy=45.20670461087523 pbc="F F F"
Te       0.00000000       0.00000000       0.00000000       0.00000000       0.00000000    -164.29449463
Te       0.00000000       0.00000000       1.23818182       0.00000000       0.00000000     164.29449463
2
Properties=species:S:1:pos:R:3:forces:R:3 energy=36.27710813077608 pbc="F F F"
Te       0.00000000       0.00000000       0.00000000       0.00000000       0.00000000    -138.64021301
Te       0.00000000       0.00000000       1.29696970       0.00000000       0.00000000     138.64021301
2
Properties=species:S:1:pos:R:3:forces:R:3 energy=28.83510711998457 pbc="F F F"
Te       0.00000000       0.00000000       0.00000000       0.00000000       0.00000000    -116.26438141
Te       0.00000000       0.00000000       1.35575758       0.00000000       0.00000000     116.26438141
2
Properties=species:S:1:pos:R:3:forces:R:3 energy=22.42486261463335 pbc="F F F"
Te       0.00000000       0.00000000       0.00000000       0.00000000       0.00000000    -102.53730011
Te       0.00000000       0.00000000       1.41454545       0.00000000       0.00000000     102.53730011
2
Properties=species:S:1:pos:R:3:forces:R:3 energy=16.80749084212725 pbc="F F F"
Te       0.00000000       0.00000000       0.00000000       0.00000000       0.00000000     -87.65383148
Te       0.00000000       0.00000000       1.47333333       0.00000000       0.00000000      87.65383148
2
Properties=species:S:1:pos:R:3:forces:R:3 energy=12.224201070204298 pbc="F F F"
Te       0.00000000       0.00000000       0.00000000       0.00000000       0.00000000     -67.87298584
Te       0.00000000       0.00000000       1.53212121       0.00000000       0.00000000      67.87298584
2
Properties=species:S:1:pos:R:3:forces:R:3 energy=8.78593642454466 pbc="F F F"
Te       0.00000000       0.00000000       0.00000000       0.00000000       0.00000000     -50.02077484
Te       0.00000000       0.00000000       1.59090909       0.00000000       0.00000000      50.02077484
2
Properties=species:S:1:pos:R:3:forces:R:3 energy=6.218116695745003 pbc="F F F"
Te       0.00000000       0.00000000       0.00000000       0.00000000       0.00000000     -38.32341766
Te       0.00000000       0.00000000       1.64969697       0.00000000       0.00000000      38.32341766
2
Properties=species:S:1:pos:R:3:forces:R:3 energy=4.189622354291444 pbc="F F F"
Te       0.00000000       0.00000000       0.00000000       0.00000000       0.00000000     -31.23061562
Te       0.00000000       0.00000000       1.70848485       0.00000000       0.00000000      31.23061562
2
Properties=species:S:1:pos:R:3:forces:R:3 energy=2.504582309963806 pbc="F F F"
Te       0.00000000       0.00000000       0.00000000       0.00000000       0.00000000     -26.29669571
Te       0.00000000       0.00000000       1.76727273       0.00000000       0.00000000      26.29669571
2
Properties=species:S:1:pos:R:3:forces:R:3 energy=1.0849558388981437 pbc="F F F"
Te       0.00000000       0.00000000       0.00000000       0.00000000       0.00000000     -22.05486679
Te       0.00000000       0.00000000       1.82606061       0.00000000       0.00000000      22.05486679
2
Properties=species:S:1:pos:R:3:forces:R:3 energy=-0.0939940662024639 pbc="F F F"
Te       0.00000000       0.00000000       0.00000000       0.00000000       0.00000000     -18.10999298
Te       0.00000000       0.00000000       1.88484848       0.00000000       0.00000000      18.10999298
2
Properties=species:S:1:pos:R:3:forces:R:3 energy=-1.0532211371045526 pbc="F F F"
Te       0.00000000       0.00000000       0.00000000       0.00000000       0.00000000     -14.61544514
Te       0.00000000       0.00000000       1.94363636       0.00000000       0.00000000      14.61544514
2
Properties=species:S:1:pos:R:3:forces:R:3 energy=-1.8239412044194632 pbc="F F F"
Te       0.00000000       0.00000000       0.00000000       0.00000000       0.00000000     -11.70193100
Te       0.00000000       0.00000000       2.00242424       0.00000000       0.00000000      11.70193100
2
Properties=species:S:1:pos:R:3:forces:R:3 energy=-2.4395215416669687 pbc="F F F"
Te       0.00000000       0.00000000       0.00000000       0.00000000       0.00000000      -9.31913280
Te       0.00000000       0.00000000       2.06121212       0.00000000       0.00000000       9.31913280
2
Properties=species:S:1:pos:R:3:forces:R:3 energy=-2.927773601399337 pbc="F F F"
Te       0.00000000       0.00000000       0.00000000       0.00000000       0.00000000      -7.35273457
Te       0.00000000       0.00000000       2.12000000       0.00000000       0.00000000       7.35273457
2
Properties=species:S:1:pos:R:3:forces:R:3 energy=-3.3105467356074163 pbc="F F F"
Te       0.00000000       0.00000000       0.00000000       0.00000000       0.00000000      -5.72068787
Te       0.00000000       0.00000000       2.17878788       0.00000000       0.00000000       5.72068787
2
Properties=species:S:1:pos:R:3:forces:R:3 energy=-3.606062793278987 pbc="F F F"
Te       0.00000000       0.00000000       0.00000000       0.00000000       0.00000000      -4.37844658
Te       0.00000000       0.00000000       2.23757576       0.00000000       0.00000000       4.37844658
2
Properties=species:S:1:pos:R:3:forces:R:3 energy=-3.8303620902352264 pbc="F F F"
Te       0.00000000       0.00000000       0.00000000       0.00000000       0.00000000      -3.29178190
Te       0.00000000       0.00000000       2.29636364       0.00000000       0.00000000       3.29178190
2
Properties=species:S:1:pos:R:3:forces:R:3 energy=-3.9972940736241798 pbc="F F F"
Te       0.00000000       0.00000000       0.00000000       0.00000000       0.00000000      -2.41887379
Te       0.00000000       0.00000000       2.35515152       0.00000000       0.00000000       2.41887379
2
Properties=species:S:1:pos:R:3:forces:R:3 energy=-4.117923651659313 pbc="F F F"
Te       0.00000000       0.00000000       0.00000000       0.00000000       0.00000000      -1.70721674
Te       0.00000000       0.00000000       2.41393939       0.00000000       0.00000000       1.70721674
2
Properties=species:S:1:pos:R:3:forces:R:3 energy=-4.200096818806984 pbc="F F F"
Te       0.00000000       0.00000000       0.00000000       0.00000000       0.00000000      -1.10186434
Te       0.00000000       0.00000000       2.47272727       0.00000000       0.00000000       1.10186434
2
Properties=species:S:1:pos:R:3:forces:R:3 energy=-4.248665458332039 pbc="F F F"
Te       0.00000000       0.00000000       0.00000000       0.00000000       0.00000000      -0.55781054
Te       0.00000000       0.00000000       2.53151515       0.00000000       0.00000000       0.55781054
2
Properties=species:S:1:pos:R:3:forces:R:3 energy=-4.266343261828963 pbc="F F F"
Te       0.00000000       0.00000000       0.00000000       0.00000000       0.00000000      -0.04809801
Te       0.00000000       0.00000000       2.59030303       0.00000000       0.00000000       0.04809801
2
Properties=species:S:1:pos:R:3:forces:R:3 energy=-4.2548099035144205 pbc="F F F"
Te       0.00000000       0.00000000       0.00000000       0.00000000       0.00000000       0.43621844
Te       0.00000000       0.00000000       2.64909091       0.00000000       0.00000000      -0.43621844
2
Properties=species:S:1:pos:R:3:forces:R:3 energy=-4.215615977287197 pbc="F F F"
Te       0.00000000       0.00000000       0.00000000       0.00000000       0.00000000       0.89171481
Te       0.00000000       0.00000000       2.70787879       0.00000000       0.00000000      -0.89171481
2
Properties=species:S:1:pos:R:3:forces:R:3 energy=-4.15071376566645 pbc="F F F"
Te       0.00000000       0.00000000       0.00000000       0.00000000       0.00000000       1.30899024
Te       0.00000000       0.00000000       2.76666667       0.00000000       0.00000000      -1.30899024
2
Properties=species:S:1:pos:R:3:forces:R:3 energy=-4.062688139850057 pbc="F F F"
Te       0.00000000       0.00000000       0.00000000       0.00000000       0.00000000       1.67631137
Te       0.00000000       0.00000000       2.82545455       0.00000000       0.00000000      -1.67631137
2
Properties=species:S:1:pos:R:3:forces:R:3 energy=-3.9548515358402927 pbc="F F F"
Te       0.00000000       0.00000000       0.00000000       0.00000000       0.00000000       1.98075628
Te       0.00000000       0.00000000       2.88424242       0.00000000       0.00000000      -1.98075628
2
Properties=species:S:1:pos:R:3:forces:R:3 energy=-3.8312812617837637 pbc="F F F"
Te       0.00000000       0.00000000       0.00000000       0.00000000       0.00000000       2.20971632
Te       0.00000000       0.00000000       2.94303030       0.00000000       0.00000000      -2.20971632
2
Properties=species:S:1:pos:R:3:forces:R:3 energy=-3.696691458522889 pbc="F F F"
Te       0.00000000       0.00000000       0.00000000       0.00000000       0.00000000       2.35487747
Te       0.00000000       0.00000000       3.00181818       0.00000000       0.00000000      -2.35487747
2
Properties=species:S:1:pos:R:3:forces:R:3 energy=-3.5560378062635527 pbc="F F F"
Te       0.00000000       0.00000000       0.00000000       0.00000000       0.00000000       2.41707206
Te       0.00000000       0.00000000       3.06060606       0.00000000       0.00000000      -2.41707206
2
Properties=species:S:1:pos:R:3:forces:R:3 energy=-3.413901012143416 pbc="F F F"
Te       0.00000000       0.00000000       0.00000000       0.00000000       0.00000000       2.40816212
Te       0.00000000       0.00000000       3.11939394       0.00000000       0.00000000      -2.40816212
2
Properties=species:S:1:pos:R:3:forces:R:3 energy=-3.2739030641797062 pbc="F F F"
Te       0.00000000       0.00000000       0.00000000       0.00000000       0.00000000       2.34791040
Te       0.00000000       0.00000000       3.17818182       0.00000000       0.00000000      -2.34791040
2
Properties=species:S:1:pos:R:3:forces:R:3 energy=-3.1384274142204682 pbc="F F F"
Te       0.00000000       0.00000000       0.00000000       0.00000000       0.00000000       2.25778365
Te       0.00000000       0.00000000       3.23696970       0.00000000       0.00000000      -2.25778365
2
Properties=species:S:1:pos:R:3:forces:R:3 energy=-3.008679392207674 pbc="F F F"
Te       0.00000000       0.00000000       0.00000000       0.00000000       0.00000000       2.15535450
Te       0.00000000       0.00000000       3.29575758       0.00000000       0.00000000      -2.15535450
2
Properties=species:S:1:pos:R:3:forces:R:3 energy=-2.8850310021282777 pbc="F F F"
Te       0.00000000       0.00000000       0.00000000       0.00000000       0.00000000       2.05159783
Te       0.00000000       0.00000000       3.35454545       0.00000000       0.00000000      -2.05159783
2
Properties=species:S:1:pos:R:3:forces:R:3 energy=-2.767396339249606 pbc="F F F"
Te       0.00000000       0.00000000       0.00000000       0.00000000       0.00000000       1.95107269
Te       0.00000000       0.00000000       3.41333333       0.00000000       0.00000000      -1.95107269
2
Properties=species:S:1:pos:R:3:forces:R:3 energy=-2.6555659186596086 pbc="F F F"
Te       0.00000000       0.00000000       0.00000000       0.00000000       0.00000000       1.85384583
Te       0.00000000       0.00000000       3.47212121       0.00000000       0.00000000      -1.85384583
2
Properties=species:S:1:pos:R:3:forces:R:3 energy=-2.5494038514315136 pbc="F F F"
Te       0.00000000       0.00000000       0.00000000       0.00000000       0.00000000       1.75789344
Te       0.00000000       0.00000000       3.53090909       0.00000000       0.00000000      -1.75789344
2
Properties=species:S:1:pos:R:3:forces:R:3 energy=-2.4488972709615306 pbc="F F F"
Te       0.00000000       0.00000000       0.00000000       0.00000000       0.00000000       1.66112077
Te       0.00000000       0.00000000       3.58969697       0.00000000       0.00000000      -1.66112077
2
Properties=species:S:1:pos:R:3:forces:R:3 energy=-2.35413081984498 pbc="F F F"
Te       0.00000000       0.00000000       0.00000000       0.00000000       0.00000000       1.56263041
Te       0.00000000       0.00000000       3.64848485       0.00000000       0.00000000      -1.56263041
2
Properties=species:S:1:pos:R:3:forces:R:3 energy=-2.2651919303442094 pbc="F F F"
Te       0.00000000       0.00000000       0.00000000       0.00000000       0.00000000       1.46308708
Te       0.00000000       0.00000000       3.70727273       0.00000000       0.00000000      -1.46308708
2
Properties=species:S:1:pos:R:3:forces:R:3 energy=-2.1820918033007786 pbc="F F F"
Te       0.00000000       0.00000000       0.00000000       0.00000000       0.00000000       1.36430490
Te       0.00000000       0.00000000       3.76606061       0.00000000       0.00000000      -1.36430490
2
Properties=species:S:1:pos:R:3:forces:R:3 energy=-2.104726246467948 pbc="F F F"
Te       0.00000000       0.00000000       0.00000000       0.00000000       0.00000000       1.26838338
Te       0.00000000       0.00000000       3.82484848       0.00000000       0.00000000      -1.26838338
2
Properties=species:S:1:pos:R:3:forces:R:3 energy=-2.032874768353695 pbc="F F F"
Te       0.00000000       0.00000000       0.00000000       0.00000000       0.00000000       1.17681015
Te       0.00000000       0.00000000       3.88363636       0.00000000       0.00000000      -1.17681015
2
Properties=species:S:1:pos:R:3:forces:R:3 energy=-1.966268759598692 pbc="F F F"
Te       0.00000000       0.00000000       0.00000000       0.00000000       0.00000000       1.08991861
Te       0.00000000       0.00000000       3.94242424       0.00000000       0.00000000      -1.08991861
2
Properties=species:S:1:pos:R:3:forces:R:3 energy=-1.9046522148541996 pbc="F F F"
Te       0.00000000       0.00000000       0.00000000       0.00000000       0.00000000       1.00685501
Te       0.00000000       0.00000000       4.00121212       0.00000000       0.00000000      -1.00685501
2
Properties=species:S:1:pos:R:3:forces:R:3 energy=-1.8478433228030744 pbc="F F F"
Te       0.00000000       0.00000000       0.00000000       0.00000000       0.00000000       0.92603183
Te       0.00000000       0.00000000       4.06000000       0.00000000       0.00000000      -0.92603183
2
Properties=species:S:1:pos:R:3:forces:R:3 energy=-1.795761768254899 pbc="F F F"
Te       0.00000000       0.00000000       0.00000000       0.00000000       0.00000000       0.84583086
Te       0.00000000       0.00000000       4.11878788       0.00000000       0.00000000      -0.84583086
2
Properties=species:S:1:pos:R:3:forces:R:3 energy=-1.7484018466993902 pbc="F F F"
Te       0.00000000       0.00000000       0.00000000       0.00000000       0.00000000       0.76526707
Te       0.00000000       0.00000000       4.17757576       0.00000000       0.00000000      -0.76526707
2
Properties=species:S:1:pos:R:3:forces:R:3 energy=-1.7057896364932292 pbc="F F F"
Te       0.00000000       0.00000000       0.00000000       0.00000000       0.00000000       0.68444347
Te       0.00000000       0.00000000       4.23636364       0.00000000       0.00000000      -0.68444347
2
Properties=species:S:1:pos:R:3:forces:R:3 energy=-1.66790862693454 pbc="F F F"
Te       0.00000000       0.00000000       0.00000000       0.00000000       0.00000000       0.60459119
Te       0.00000000       0.00000000       4.29515152       0.00000000       0.00000000      -0.60459119
2
Properties=species:S:1:pos:R:3:forces:R:3 energy=-1.6346445897181403 pbc="F F F"
Te       0.00000000       0.00000000       0.00000000       0.00000000       0.00000000       0.52782512
Te       0.00000000       0.00000000       4.35393939       0.00000000       0.00000000      -0.52782512
2
Properties=species:S:1:pos:R:3:forces:R:3 energy=-1.605740955479432 pbc="F F F"
Te       0.00000000       0.00000000       0.00000000       0.00000000       0.00000000       0.45662671
Te       0.00000000       0.00000000       4.41272727       0.00000000       0.00000000      -0.45662671
2
Properties=species:S:1:pos:R:3:forces:R:3 energy=-1.5808005175704987 pbc="F F F"
Te       0.00000000       0.00000000       0.00000000       0.00000000       0.00000000       0.39333957
Te       0.00000000       0.00000000       4.47151515       0.00000000       0.00000000      -0.39333957
2
Properties=species:S:1:pos:R:3:forces:R:3 energy=-1.5593028869655 pbc="F F F"
Te       0.00000000       0.00000000       0.00000000       0.00000000       0.00000000       0.33973268
Te       0.00000000       0.00000000       4.53030303       0.00000000       0.00000000      -0.33973268
2
Properties=species:S:1:pos:R:3:forces:R:3 energy=-1.5406476535270857 pbc="F F F"
Te       0.00000000       0.00000000       0.00000000       0.00000000       0.00000000       0.29674661
Te       0.00000000       0.00000000       4.58909091       0.00000000       0.00000000      -0.29674661
2
Properties=species:S:1:pos:R:3:forces:R:3 energy=-1.52420327848614 pbc="F F F"
Te       0.00000000       0.00000000       0.00000000       0.00000000       0.00000000       0.26444033
Te       0.00000000       0.00000000       4.64787879       0.00000000       0.00000000      -0.26444033
2
Properties=species:S:1:pos:R:3:forces:R:3 energy=-1.5093609010129265 pbc="F F F"
Te       0.00000000       0.00000000       0.00000000       0.00000000       0.00000000       0.24204922
Te       0.00000000       0.00000000       4.70666667       0.00000000       0.00000000      -0.24204922
2
Properties=species:S:1:pos:R:3:forces:R:3 energy=-1.4955775826787974 pbc="F F F"
Te       0.00000000       0.00000000       0.00000000       0.00000000       0.00000000       0.22815137
Te       0.00000000       0.00000000       4.76545455       0.00000000       0.00000000      -0.22815137
2
Properties=species:S:1:pos:R:3:forces:R:3 energy=-1.4824052372996865 pbc="F F F"
Te       0.00000000       0.00000000       0.00000000       0.00000000       0.00000000       0.22088358
Te       0.00000000       0.00000000       4.82424242       0.00000000       0.00000000      -0.22088358
2
Properties=species:S:1:pos:R:3:forces:R:3 energy=-1.4695176455114176 pbc="F F F"
Te       0.00000000       0.00000000       0.00000000       0.00000000       0.00000000       0.21819836
Te       0.00000000       0.00000000       4.88303030       0.00000000       0.00000000      -0.21819836
2
Properties=species:S:1:pos:R:3:forces:R:3 energy=-1.4567007338768958 pbc="F F F"
Te       0.00000000       0.00000000       0.00000000       0.00000000       0.00000000       0.21808496
Te       0.00000000       0.00000000       4.94181818       0.00000000       0.00000000      -0.21808496
2
Properties=species:S:1:pos:R:3:forces:R:3 energy=-1.4438607096281977 pbc="F F F"
Te       0.00000000       0.00000000       0.00000000       0.00000000       0.00000000       0.21873984
Te       0.00000000       0.00000000       5.00060606       0.00000000       0.00000000      -0.21873984
2
Properties=species:S:1:pos:R:3:forces:R:3 energy=-1.4309962084584134 pbc="F F F"
Te       0.00000000       0.00000000       0.00000000       0.00000000       0.00000000       0.21865740
Te       0.00000000       0.00000000       5.05939394       0.00000000       0.00000000      -0.21865740
2
Properties=species:S:1:pos:R:3:forces:R:3 energy=-1.41819011543005 pbc="F F F"
Te       0.00000000       0.00000000       0.00000000       0.00000000       0.00000000       0.21663781
Te       0.00000000       0.00000000       5.11818182       0.00000000       0.00000000      -0.21663781
2
Properties=species:S:1:pos:R:3:forces:R:3 energy=-1.405581070371046 pbc="F F F"
Te       0.00000000       0.00000000       0.00000000       0.00000000       0.00000000       0.21180330
Te       0.00000000       0.00000000       5.17696970       0.00000000       0.00000000      -0.21180330
2
Properties=species:S:1:pos:R:3:forces:R:3 energy=-1.3933539200442306 pbc="F F F"
Te       0.00000000       0.00000000       0.00000000       0.00000000       0.00000000       0.20359915
Te       0.00000000       0.00000000       5.23575758       0.00000000       0.00000000      -0.20359915
2
Properties=species:S:1:pos:R:3:forces:R:3 energy=-1.3817130295216637 pbc="F F F"
Te       0.00000000       0.00000000       0.00000000       0.00000000       0.00000000       0.19182758
Te       0.00000000       0.00000000       5.29454545       0.00000000       0.00000000      -0.19182758
2
Properties=species:S:1:pos:R:3:forces:R:3 energy=-1.3708658150476085 pbc="F F F"
Te       0.00000000       0.00000000       0.00000000       0.00000000       0.00000000       0.17665961
Te       0.00000000       0.00000000       5.35333333       0.00000000       0.00000000      -0.17665961
2
Properties=species:S:1:pos:R:3:forces:R:3 energy=-1.360999367930401 pbc="F F F"
Te       0.00000000       0.00000000       0.00000000       0.00000000       0.00000000       0.15860941
Te       0.00000000       0.00000000       5.41212121       0.00000000       0.00000000      -0.15860941
2
Properties=species:S:1:pos:R:3:forces:R:3 energy=-1.3522579707121036 pbc="F F F"
Te       0.00000000       0.00000000       0.00000000       0.00000000       0.00000000       0.13848716
Te       0.00000000       0.00000000       5.47090909       0.00000000       0.00000000      -0.13848716
2
Properties=species:S:1:pos:R:3:forces:R:3 energy=-1.3447373058065137 pbc="F F F"
Te       0.00000000       0.00000000       0.00000000       0.00000000       0.00000000       0.11725585
Te       0.00000000       0.00000000       5.52969697       0.00000000       0.00000000      -0.11725585
2
Properties=species:S:1:pos:R:3:forces:R:3 energy=-1.338473416552569 pbc="F F F"
Te       0.00000000       0.00000000       0.00000000       0.00000000       0.00000000       0.09592164
Te       0.00000000       0.00000000       5.58848485       0.00000000       0.00000000      -0.09592164
2
Properties=species:S:1:pos:R:3:forces:R:3 energy=-1.3334453337784946 pbc="F F F"
Te       0.00000000       0.00000000       0.00000000       0.00000000       0.00000000       0.07544231
Te       0.00000000       0.00000000       5.64727273       0.00000000       0.00000000      -0.07544231
2
Properties=species:S:1:pos:R:3:forces:R:3 energy=-1.3295720215017415 pbc="F F F"
Te       0.00000000       0.00000000       0.00000000       0.00000000       0.00000000       0.05662989
Te       0.00000000       0.00000000       5.70606061       0.00000000       0.00000000      -0.05662989
2
Properties=species:S:1:pos:R:3:forces:R:3 energy=-1.3267356615462689 pbc="F F F"
Te       0.00000000       0.00000000       0.00000000       0.00000000       0.00000000       0.04016034
Te       0.00000000       0.00000000       5.76484848       0.00000000       0.00000000      -0.04016034
2
Properties=species:S:1:pos:R:3:forces:R:3 energy=-1.3247898900709014 pbc="F F F"
Te       0.00000000       0.00000000       0.00000000       0.00000000       0.00000000       0.02658780
Te       0.00000000       0.00000000       5.82363636       0.00000000       0.00000000      -0.02658780
2
Properties=species:S:1:pos:R:3:forces:R:3 energy=-1.3235481277302414 pbc="F F F"
Te       0.00000000       0.00000000       0.00000000       0.00000000       0.00000000       0.01634419
Te       0.00000000       0.00000000       5.88242424       0.00000000       0.00000000      -0.01634419
2
Properties=species:S:1:pos:R:3:forces:R:3 energy=-1.3227970930899877 pbc="F F F"
Te       0.00000000       0.00000000       0.00000000       0.00000000       0.00000000       0.00978840
Te       0.00000000       0.00000000       5.94121212       0.00000000       0.00000000      -0.00978840
2
Properties=species:S:1:pos:R:3:forces:R:3 energy=-1.3223168171162913 pbc="F F F"
Te       0.00000000       0.00000000       0.00000000       0.00000000       0.00000000       0.00726031
Te       0.00000000       0.00000000       6.00000000       0.00000000       0.00000000      -0.00726031
