2
Properties=species:S:1:pos:R:3:forces:R:3 energy=2791.950323613207 pbc="F F F"
Ti       0.00000000       0.00000000       0.00000000       0.00000000       0.00000000  -42523.01953125
Ti       0.00000000       0.00000000       0.18000000       0.00000000       0.00000000   42523.01953125
2
Properties=species:S:1:pos:R:3:forces:R:3 energy=1232.8864808397693 pbc="F F F"
Ti       0.00000000       0.00000000       0.00000000       0.00000000       0.00000000  -15753.89355469
Ti       0.00000000       0.00000000       0.23878788       0.00000000       0.00000000   15753.89355469
2
Properties=species:S:1:pos:R:3:forces:R:3 energy=610.827581917156 pbc="F F F"
Ti       0.00000000       0.00000000       0.00000000       0.00000000       0.00000000   -6854.12841797
Ti       0.00000000       0.00000000       0.29757576       0.00000000       0.00000000    6854.12841797
2
Properties=species:S:1:pos:R:3:forces:R:3 energy=326.5322938312184 pbc="F F F"
Ti       0.00000000       0.00000000       0.00000000       0.00000000       0.00000000   -3311.83032227
Ti       0.00000000       0.00000000       0.35636364       0.00000000       0.00000000    3311.83032227
2
Properties=species:S:1:pos:R:3:forces:R:3 energy=184.46303419399936 pbc="F F F"
Ti       0.00000000       0.00000000       0.00000000       0.00000000       0.00000000   -1718.22473145
Ti       0.00000000       0.00000000       0.41515152       0.00000000       0.00000000    1718.22473145
2
Properties=species:S:1:pos:R:3:forces:R:3 energy=108.97712569203422 pbc="F F F"
Ti       0.00000000       0.00000000       0.00000000       0.00000000       0.00000000    -937.21453857
Ti       0.00000000       0.00000000       0.47393939       0.00000000       0.00000000     937.21453857
2
Properties=species:S:1:pos:R:3:forces:R:3 energy=67.12221391317757 pbc="F F F"
Ti       0.00000000       0.00000000       0.00000000       0.00000000       0.00000000    -528.30657959
Ti       0.00000000       0.00000000       0.53272727       0.00000000       0.00000000     528.30657959
2
Properties=species:S:1:pos:R:3:forces:R:3 energy=43.3996378066662 pbc="F F F"
Ti       0.00000000       0.00000000       0.00000000       0.00000000       0.00000000    -299.05419922
Ti       0.00000000       0.00000000       0.59151515       0.00000000       0.00000000     299.05419922
2
Properties=species:S:1:pos:R:3:forces:R:3 energy=30.293545410684064 pbc="F F F"
Ti       0.00000000       0.00000000       0.00000000       0.00000000       0.00000000    -156.20394897
Ti       0.00000000       0.00000000       0.65030303       0.00000000       0.00000000     156.20394897
2
Properties=species:S:1:pos:R:3:forces:R:3 energy=24.318817878271318 pbc="F F F"
Ti       0.00000000       0.00000000       0.00000000       0.00000000       0.00000000     -50.59903717
Ti       0.00000000       0.00000000       0.70909091       0.00000000       0.00000000      50.59903717
2
Properties=species:S:1:pos:R:3:forces:R:3 energy=24.10144321285193 pbc="F F F"
Ti       0.00000000       0.00000000       0.00000000       0.00000000       0.00000000      41.85585403
Ti       0.00000000       0.00000000       0.76787879       0.00000000       0.00000000     -41.85585403
2
Properties=species:S:1:pos:R:3:forces:R:3 energy=29.01122011271808 pbc="F F F"
Ti       0.00000000       0.00000000       0.00000000       0.00000000       0.00000000     121.65824890
Ti       0.00000000       0.00000000       0.82666667       0.00000000       0.00000000    -121.65824890
2
Properties=species:S:1:pos:R:3:forces:R:3 energy=36.259047937232765 pbc="F F F"
Ti       0.00000000       0.00000000       0.00000000       0.00000000       0.00000000      69.81549835
Ti       0.00000000       0.00000000       0.88545455       0.00000000       0.00000000     -69.81549835
2
Properties=species:S:1:pos:R:3:forces:R:3 energy=40.68061436490677 pbc="F F F"
Ti       0.00000000       0.00000000       0.00000000       0.00000000       0.00000000      66.21998596
Ti       0.00000000       0.00000000       0.94424242       0.00000000       0.00000000     -66.21998596
2
Properties=species:S:1:pos:R:3:forces:R:3 energy=42.58800553593283 pbc="F F F"
Ti       0.00000000       0.00000000       0.00000000       0.00000000       0.00000000     -12.05363369
Ti       0.00000000       0.00000000       1.00303030       0.00000000       0.00000000      12.05363369
2
Properties=species:S:1:pos:R:3:forces:R:3 energy=38.628007227576596 pbc="F F F"
Ti       0.00000000       0.00000000       0.00000000       0.00000000       0.00000000    -136.43588257
Ti       0.00000000       0.00000000       1.06181818       0.00000000       0.00000000     136.43588257
2
Properties=species:S:1:pos:R:3:forces:R:3 energy=26.84562147733364 pbc="F F F"
Ti       0.00000000       0.00000000       0.00000000       0.00000000       0.00000000    -215.43232727
Ti       0.00000000       0.00000000       1.12060606       0.00000000       0.00000000     215.43232727
2
Properties=species:S:1:pos:R:3:forces:R:3 energy=14.27595692118022 pbc="F F F"
Ti       0.00000000       0.00000000       0.00000000       0.00000000       0.00000000    -205.63943481
Ti       0.00000000       0.00000000       1.17939394       0.00000000       0.00000000     205.63943481
2
Properties=species:S:1:pos:R:3:forces:R:3 energy=3.2338668201841605 pbc="F F F"
Ti       0.00000000       0.00000000       0.00000000       0.00000000       0.00000000    -168.29615784
Ti       0.00000000       0.00000000       1.23818182       0.00000000       0.00000000     168.29615784
2
Properties=species:S:1:pos:R:3:forces:R:3 energy=-4.075050853117436 pbc="F F F"
Ti       0.00000000       0.00000000       0.00000000       0.00000000       0.00000000     -58.83343506
Ti       0.00000000       0.00000000       1.29696970       0.00000000       0.00000000      58.83343506
2
Properties=species:S:1:pos:R:3:forces:R:3 energy=-5.7783308605194454 pbc="F F F"
Ti       0.00000000       0.00000000       0.00000000       0.00000000       0.00000000     -17.89835739
Ti       0.00000000       0.00000000       1.35575758       0.00000000       0.00000000      17.89835739
2
Properties=species:S:1:pos:R:3:forces:R:3 energy=-6.691249230747506 pbc="F F F"
Ti       0.00000000       0.00000000       0.00000000       0.00000000       0.00000000     -13.78909206
Ti       0.00000000       0.00000000       1.41454545       0.00000000       0.00000000      13.78909206
2
Properties=species:S:1:pos:R:3:forces:R:3 energy=-7.437453495229848 pbc="F F F"
Ti       0.00000000       0.00000000       0.00000000       0.00000000       0.00000000     -11.40249729
Ti       0.00000000       0.00000000       1.47333333       0.00000000       0.00000000      11.40249729
2
Properties=species:S:1:pos:R:3:forces:R:3 energy=-8.003241592505683 pbc="F F F"
Ti       0.00000000       0.00000000       0.00000000       0.00000000       0.00000000      -7.81004858
Ti       0.00000000       0.00000000       1.53212121       0.00000000       0.00000000       7.81004858
2
Properties=species:S:1:pos:R:3:forces:R:3 energy=-8.381029228000997 pbc="F F F"
Ti       0.00000000       0.00000000       0.00000000       0.00000000       0.00000000      -5.41132402
Ti       0.00000000       0.00000000       1.59090909       0.00000000       0.00000000       5.41132402
2
Properties=species:S:1:pos:R:3:forces:R:3 energy=-8.672657661384012 pbc="F F F"
Ti       0.00000000       0.00000000       0.00000000       0.00000000       0.00000000      -4.57949162
Ti       0.00000000       0.00000000       1.64969697       0.00000000       0.00000000       4.57949162
2
Properties=species:S:1:pos:R:3:forces:R:3 energy=-8.906198096585346 pbc="F F F"
Ti       0.00000000       0.00000000       0.00000000       0.00000000       0.00000000      -3.19230390
Ti       0.00000000       0.00000000       1.70848485       0.00000000       0.00000000       3.19230390
2
Properties=species:S:1:pos:R:3:forces:R:3 energy=-9.036385098264434 pbc="F F F"
Ti       0.00000000       0.00000000       0.00000000       0.00000000       0.00000000      -1.23298943
Ti       0.00000000       0.00000000       1.76727273       0.00000000       0.00000000       1.23298943
2
Properties=species:S:1:pos:R:3:forces:R:3 energy=-9.058478784691497 pbc="F F F"
Ti       0.00000000       0.00000000       0.00000000       0.00000000       0.00000000       0.38219184
Ti       0.00000000       0.00000000       1.82606061       0.00000000       0.00000000      -0.38219184
2
Properties=species:S:1:pos:R:3:forces:R:3 energy=-9.00378065744744 pbc="F F F"
Ti       0.00000000       0.00000000       0.00000000       0.00000000       0.00000000       1.37983823
Ti       0.00000000       0.00000000       1.88484848       0.00000000       0.00000000      -1.37983823
2
Properties=species:S:1:pos:R:3:forces:R:3 energy=-8.906213203406471 pbc="F F F"
Ti       0.00000000       0.00000000       0.00000000       0.00000000       0.00000000       1.87009537
Ti       0.00000000       0.00000000       1.94363636       0.00000000       0.00000000      -1.87009537
2
Properties=species:S:1:pos:R:3:forces:R:3 energy=-8.790305920682716 pbc="F F F"
Ti       0.00000000       0.00000000       0.00000000       0.00000000       0.00000000       2.03242874
Ti       0.00000000       0.00000000       2.00242424       0.00000000       0.00000000      -2.03242874
2
Properties=species:S:1:pos:R:3:forces:R:3 energy=-8.670610092053442 pbc="F F F"
Ti       0.00000000       0.00000000       0.00000000       0.00000000       0.00000000       2.02225256
Ti       0.00000000       0.00000000       2.06121212       0.00000000       0.00000000      -2.02225256
2
Properties=species:S:1:pos:R:3:forces:R:3 energy=-8.553421130118108 pbc="F F F"
Ti       0.00000000       0.00000000       0.00000000       0.00000000       0.00000000       1.96609354
Ti       0.00000000       0.00000000       2.12000000       0.00000000       0.00000000      -1.96609354
2
Properties=species:S:1:pos:R:3:forces:R:3 energy=-8.438463938235335 pbc="F F F"
Ti       0.00000000       0.00000000       0.00000000       0.00000000       0.00000000       1.95826089
Ti       0.00000000       0.00000000       2.17878788       0.00000000       0.00000000      -1.95826089
2
Properties=species:S:1:pos:R:3:forces:R:3 energy=-8.321344768856816 pbc="F F F"
Ti       0.00000000       0.00000000       0.00000000       0.00000000       0.00000000       2.04172015
Ti       0.00000000       0.00000000       2.23757576       0.00000000       0.00000000      -2.04172015
2
Properties=species:S:1:pos:R:3:forces:R:3 energy=-8.196913881855242 pbc="F F F"
Ti       0.00000000       0.00000000       0.00000000       0.00000000       0.00000000       2.20021009
Ti       0.00000000       0.00000000       2.29636364       0.00000000       0.00000000      -2.20021009
2
Properties=species:S:1:pos:R:3:forces:R:3 energy=-8.0621899528341 pbc="F F F"
Ti       0.00000000       0.00000000       0.00000000       0.00000000       0.00000000       2.38257074
Ti       0.00000000       0.00000000       2.35515152       0.00000000       0.00000000      -2.38257074
2
Properties=species:S:1:pos:R:3:forces:R:3 energy=-7.917270248101622 pbc="F F F"
Ti       0.00000000       0.00000000       0.00000000       0.00000000       0.00000000       2.54087067
Ti       0.00000000       0.00000000       2.41393939       0.00000000       0.00000000      -2.54087067
2
Properties=species:S:1:pos:R:3:forces:R:3 energy=-7.764400514853406 pbc="F F F"
Ti       0.00000000       0.00000000       0.00000000       0.00000000       0.00000000       2.65110445
Ti       0.00000000       0.00000000       2.47272727       0.00000000       0.00000000      -2.65110445
2
Properties=species:S:1:pos:R:3:forces:R:3 energy=-7.606557832755923 pbc="F F F"
Ti       0.00000000       0.00000000       0.00000000       0.00000000       0.00000000       2.71091723
Ti       0.00000000       0.00000000       2.53151515       0.00000000       0.00000000      -2.71091723
2
Properties=species:S:1:pos:R:3:forces:R:3 energy=-7.446511742448785 pbc="F F F"
Ti       0.00000000       0.00000000       0.00000000       0.00000000       0.00000000       2.72740984
Ti       0.00000000       0.00000000       2.59030303       0.00000000       0.00000000      -2.72740984
2
Properties=species:S:1:pos:R:3:forces:R:3 energy=-7.28661422844557 pbc="F F F"
Ti       0.00000000       0.00000000       0.00000000       0.00000000       0.00000000       2.70617700
Ti       0.00000000       0.00000000       2.64909091       0.00000000       0.00000000      -2.70617700
2
Properties=species:S:1:pos:R:3:forces:R:3 energy=-7.129076889237865 pbc="F F F"
Ti       0.00000000       0.00000000       0.00000000       0.00000000       0.00000000       2.64659023
Ti       0.00000000       0.00000000       2.70787879       0.00000000       0.00000000      -2.64659023
2
Properties=species:S:1:pos:R:3:forces:R:3 energy=-6.976300623932937 pbc="F F F"
Ti       0.00000000       0.00000000       0.00000000       0.00000000       0.00000000       2.54307413
Ti       0.00000000       0.00000000       2.76666667       0.00000000       0.00000000      -2.54307413
2
Properties=species:S:1:pos:R:3:forces:R:3 energy=-6.831023355583002 pbc="F F F"
Ti       0.00000000       0.00000000       0.00000000       0.00000000       0.00000000       2.39157391
Ti       0.00000000       0.00000000       2.82545455       0.00000000       0.00000000      -2.39157391
2
Properties=species:S:1:pos:R:3:forces:R:3 energy=-6.695822142689208 pbc="F F F"
Ti       0.00000000       0.00000000       0.00000000       0.00000000       0.00000000       2.20508051
Ti       0.00000000       0.00000000       2.88424242       0.00000000       0.00000000      -2.20508051
2
Properties=species:S:1:pos:R:3:forces:R:3 energy=-6.57154592068491 pbc="F F F"
Ti       0.00000000       0.00000000       0.00000000       0.00000000       0.00000000       2.02976251
Ti       0.00000000       0.00000000       2.94303030       0.00000000       0.00000000      -2.02976251
2
Properties=species:S:1:pos:R:3:forces:R:3 energy=-6.456008236361424 pbc="F F F"
Ti       0.00000000       0.00000000       0.00000000       0.00000000       0.00000000       1.91083372
Ti       0.00000000       0.00000000       3.00181818       0.00000000       0.00000000      -1.91083372
2
Properties=species:S:1:pos:R:3:forces:R:3 energy=-6.346195885959797 pbc="F F F"
Ti       0.00000000       0.00000000       0.00000000       0.00000000       0.00000000       1.82569480
Ti       0.00000000       0.00000000       3.06060606       0.00000000       0.00000000      -1.82569480
2
Properties=species:S:1:pos:R:3:forces:R:3 energy=-6.241724343520501 pbc="F F F"
Ti       0.00000000       0.00000000       0.00000000       0.00000000       0.00000000       1.72338748
Ti       0.00000000       0.00000000       3.11939394       0.00000000       0.00000000      -1.72338748
2
Properties=species:S:1:pos:R:3:forces:R:3 energy=-6.144116327636513 pbc="F F F"
Ti       0.00000000       0.00000000       0.00000000       0.00000000       0.00000000       1.59382832
Ti       0.00000000       0.00000000       3.17818182       0.00000000       0.00000000      -1.59382832
2
Properties=species:S:1:pos:R:3:forces:R:3 energy=-6.054570138925431 pbc="F F F"
Ti       0.00000000       0.00000000       0.00000000       0.00000000       0.00000000       1.45170951
Ti       0.00000000       0.00000000       3.23696970       0.00000000       0.00000000      -1.45170951
2
Properties=species:S:1:pos:R:3:forces:R:3 energy=-5.973449249351946 pbc="F F F"
Ti       0.00000000       0.00000000       0.00000000       0.00000000       0.00000000       1.30843341
Ti       0.00000000       0.00000000       3.29575758       0.00000000       0.00000000      -1.30843341
2
Properties=species:S:1:pos:R:3:forces:R:3 energy=-5.900654332016985 pbc="F F F"
Ti       0.00000000       0.00000000       0.00000000       0.00000000       0.00000000       1.16901457
Ti       0.00000000       0.00000000       3.35454545       0.00000000       0.00000000      -1.16901457
2
Properties=species:S:1:pos:R:3:forces:R:3 energy=-5.835856171422566 pbc="F F F"
Ti       0.00000000       0.00000000       0.00000000       0.00000000       0.00000000       1.03705597
Ti       0.00000000       0.00000000       3.41333333       0.00000000       0.00000000      -1.03705597
2
Properties=species:S:1:pos:R:3:forces:R:3 energy=-5.778481251442123 pbc="F F F"
Ti       0.00000000       0.00000000       0.00000000       0.00000000       0.00000000       0.91738582
Ti       0.00000000       0.00000000       3.47212121       0.00000000       0.00000000      -0.91738582
2
Properties=species:S:1:pos:R:3:forces:R:3 energy=-5.727641541297479 pbc="F F F"
Ti       0.00000000       0.00000000       0.00000000       0.00000000       0.00000000       0.81567323
Ti       0.00000000       0.00000000       3.53090909       0.00000000       0.00000000      -0.81567323
2
Properties=species:S:1:pos:R:3:forces:R:3 energy=-5.68213106580271 pbc="F F F"
Ti       0.00000000       0.00000000       0.00000000       0.00000000       0.00000000       0.73667234
Ti       0.00000000       0.00000000       3.58969697       0.00000000       0.00000000      -0.73667234
2
Properties=species:S:1:pos:R:3:forces:R:3 energy=-5.640536866414903 pbc="F F F"
Ti       0.00000000       0.00000000       0.00000000       0.00000000       0.00000000       0.68254381
Ti       0.00000000       0.00000000       3.64848485       0.00000000       0.00000000      -0.68254381
2
Properties=species:S:1:pos:R:3:forces:R:3 energy=-5.601417082922018 pbc="F F F"
Ti       0.00000000       0.00000000       0.00000000       0.00000000       0.00000000       0.65195900
Ti       0.00000000       0.00000000       3.70727273       0.00000000       0.00000000      -0.65195900
2
Properties=species:S:1:pos:R:3:forces:R:3 energy=-5.5635100155306 pbc="F F F"
Ti       0.00000000       0.00000000       0.00000000       0.00000000       0.00000000       0.64026481
Ti       0.00000000       0.00000000       3.76606061       0.00000000       0.00000000      -0.64026481
2
Properties=species:S:1:pos:R:3:forces:R:3 energy=-5.525902313670265 pbc="F F F"
Ti       0.00000000       0.00000000       0.00000000       0.00000000       0.00000000       0.64053291
Ti       0.00000000       0.00000000       3.82484848       0.00000000       0.00000000      -0.64053291
2
Properties=species:S:1:pos:R:3:forces:R:3 energy=-5.488115072779234 pbc="F F F"
Ti       0.00000000       0.00000000       0.00000000       0.00000000       0.00000000       0.64511091
Ti       0.00000000       0.00000000       3.88363636       0.00000000       0.00000000      -0.64511091
2
Properties=species:S:1:pos:R:3:forces:R:3 energy=-5.450103458837483 pbc="F F F"
Ti       0.00000000       0.00000000       0.00000000       0.00000000       0.00000000       0.64717084
Ti       0.00000000       0.00000000       3.94242424       0.00000000       0.00000000      -0.64717084
2
Properties=species:S:1:pos:R:3:forces:R:3 energy=-5.41217132917285 pbc="F F F"
Ti       0.00000000       0.00000000       0.00000000       0.00000000       0.00000000       0.64179522
Ti       0.00000000       0.00000000       4.00121212       0.00000000       0.00000000      -0.64179522
2
Properties=species:S:1:pos:R:3:forces:R:3 energy=-5.374842301030795 pbc="F F F"
Ti       0.00000000       0.00000000       0.00000000       0.00000000       0.00000000       0.62638700
Ti       0.00000000       0.00000000       4.06000000       0.00000000       0.00000000      -0.62638700
2
Properties=species:S:1:pos:R:3:forces:R:3 energy=-5.338729855462402 pbc="F F F"
Ti       0.00000000       0.00000000       0.00000000       0.00000000       0.00000000       0.60049760
Ti       0.00000000       0.00000000       4.11878788       0.00000000       0.00000000      -0.60049760
2
Properties=species:S:1:pos:R:3:forces:R:3 energy=-5.304421725656346 pbc="F F F"
Ti       0.00000000       0.00000000       0.00000000       0.00000000       0.00000000       0.56527513
Ti       0.00000000       0.00000000       4.17757576       0.00000000       0.00000000      -0.56527513
2
Properties=species:S:1:pos:R:3:forces:R:3 energy=-5.272408837194871 pbc="F F F"
Ti       0.00000000       0.00000000       0.00000000       0.00000000       0.00000000       0.52282238
Ti       0.00000000       0.00000000       4.23636364       0.00000000       0.00000000      -0.52282238
2
Properties=species:S:1:pos:R:3:forces:R:3 energy=-5.243042905896741 pbc="F F F"
Ti       0.00000000       0.00000000       0.00000000       0.00000000       0.00000000       0.47561705
Ti       0.00000000       0.00000000       4.29515152       0.00000000       0.00000000      -0.47561705
2
Properties=species:S:1:pos:R:3:forces:R:3 energy=-5.216532700811536 pbc="F F F"
Ti       0.00000000       0.00000000       0.00000000       0.00000000       0.00000000       0.42611307
Ti       0.00000000       0.00000000       4.35393939       0.00000000       0.00000000      -0.42611307
2
Properties=species:S:1:pos:R:3:forces:R:3 energy=-5.192945691806877 pbc="F F F"
Ti       0.00000000       0.00000000       0.00000000       0.00000000       0.00000000       0.37647322
Ti       0.00000000       0.00000000       4.41272727       0.00000000       0.00000000      -0.37647322
2
Properties=species:S:1:pos:R:3:forces:R:3 energy=-5.172235718794883 pbc="F F F"
Ti       0.00000000       0.00000000       0.00000000       0.00000000       0.00000000       0.32848498
Ti       0.00000000       0.00000000       4.47151515       0.00000000       0.00000000      -0.32848498
2
Properties=species:S:1:pos:R:3:forces:R:3 energy=-5.154263769826519 pbc="F F F"
Ti       0.00000000       0.00000000       0.00000000       0.00000000       0.00000000       0.28351295
Ti       0.00000000       0.00000000       4.53030303       0.00000000       0.00000000      -0.28351295
2
Properties=species:S:1:pos:R:3:forces:R:3 energy=-5.13882345152979 pbc="F F F"
Ti       0.00000000       0.00000000       0.00000000       0.00000000       0.00000000       0.24252513
Ti       0.00000000       0.00000000       4.58909091       0.00000000       0.00000000      -0.24252513
2
Properties=species:S:1:pos:R:3:forces:R:3 energy=-5.125659357675711 pbc="F F F"
Ti       0.00000000       0.00000000       0.00000000       0.00000000       0.00000000       0.20611091
Ti       0.00000000       0.00000000       4.64787879       0.00000000       0.00000000      -0.20611091
2
Properties=species:S:1:pos:R:3:forces:R:3 energy=-5.11449463703447 pbc="F F F"
Ti       0.00000000       0.00000000       0.00000000       0.00000000       0.00000000       0.17451262
Ti       0.00000000       0.00000000       4.70666667       0.00000000       0.00000000      -0.17451262
2
Properties=species:S:1:pos:R:3:forces:R:3 energy=-5.105047277194726 pbc="F F F"
Ti       0.00000000       0.00000000       0.00000000       0.00000000       0.00000000       0.14767461
Ti       0.00000000       0.00000000       4.76545455       0.00000000       0.00000000      -0.14767461
2
Properties=species:S:1:pos:R:3:forces:R:3 energy=-5.097044384335775 pbc="F F F"
Ti       0.00000000       0.00000000       0.00000000       0.00000000       0.00000000       0.12530136
Ti       0.00000000       0.00000000       4.82424242       0.00000000       0.00000000      -0.12530136
2
Properties=species:S:1:pos:R:3:forces:R:3 energy=-5.090235758079375 pbc="F F F"
Ti       0.00000000       0.00000000       0.00000000       0.00000000       0.00000000       0.10697339
Ti       0.00000000       0.00000000       4.88303030       0.00000000       0.00000000      -0.10697339
2
Properties=species:S:1:pos:R:3:forces:R:3 energy=-5.084396079270555 pbc="F F F"
Ti       0.00000000       0.00000000       0.00000000       0.00000000       0.00000000       0.09225428
Ti       0.00000000       0.00000000       4.94181818       0.00000000       0.00000000      -0.09225428
2
Properties=species:S:1:pos:R:3:forces:R:3 energy=-5.0793248149429555 pbc="F F F"
Ti       0.00000000       0.00000000       0.00000000       0.00000000       0.00000000       0.08079228
Ti       0.00000000       0.00000000       5.00060606       0.00000000       0.00000000      -0.08079228
2
Properties=species:S:1:pos:R:3:forces:R:3 energy=-5.0748381817792225 pbc="F F F"
Ti       0.00000000       0.00000000       0.00000000       0.00000000       0.00000000       0.07233027
Ti       0.00000000       0.00000000       5.05939394       0.00000000       0.00000000      -0.07233027
2
Properties=species:S:1:pos:R:3:forces:R:3 energy=-5.0707659873127815 pbc="F F F"
Ti       0.00000000       0.00000000       0.00000000       0.00000000       0.00000000       0.06664795
Ti       0.00000000       0.00000000       5.11818182       0.00000000       0.00000000      -0.06664795
2
Properties=species:S:1:pos:R:3:forces:R:3 energy=-5.066953174480905 pbc="F F F"
Ti       0.00000000       0.00000000       0.00000000       0.00000000       0.00000000       0.06344887
Ti       0.00000000       0.00000000       5.17696970       0.00000000       0.00000000      -0.06344887
2
Properties=species:S:1:pos:R:3:forces:R:3 energy=-5.06326649734493 pbc="F F F"
Ti       0.00000000       0.00000000       0.00000000       0.00000000       0.00000000       0.06226569
Ti       0.00000000       0.00000000       5.23575758       0.00000000       0.00000000      -0.06226569
2
Properties=species:S:1:pos:R:3:forces:R:3 energy=-5.05960596201423 pbc="F F F"
Ti       0.00000000       0.00000000       0.00000000       0.00000000       0.00000000       0.06242730
Ti       0.00000000       0.00000000       5.29454545       0.00000000       0.00000000      -0.06242730
2
Properties=species:S:1:pos:R:3:forces:R:3 energy=-5.055915898438989 pbc="F F F"
Ti       0.00000000       0.00000000       0.00000000       0.00000000       0.00000000       0.06312115
Ti       0.00000000       0.00000000       5.35333333       0.00000000       0.00000000      -0.06312115
2
Properties=species:S:1:pos:R:3:forces:R:3 energy=-5.052190170772891 pbc="F F F"
Ti       0.00000000       0.00000000       0.00000000       0.00000000       0.00000000       0.06351292
Ti       0.00000000       0.00000000       5.41212121       0.00000000       0.00000000      -0.06351292
2
Properties=species:S:1:pos:R:3:forces:R:3 energy=-5.048468069572389 pbc="F F F"
Ti       0.00000000       0.00000000       0.00000000       0.00000000       0.00000000       0.06290548
Ti       0.00000000       0.00000000       5.47090909       0.00000000       0.00000000      -0.06290548
2
Properties=species:S:1:pos:R:3:forces:R:3 energy=-5.044822409874678 pbc="F F F"
Ti       0.00000000       0.00000000       0.00000000       0.00000000       0.00000000       0.06085753
Ti       0.00000000       0.00000000       5.52969697       0.00000000       0.00000000      -0.06085753
2
Properties=species:S:1:pos:R:3:forces:R:3 energy=-5.041343868431384 pbc="F F F"
Ti       0.00000000       0.00000000       0.00000000       0.00000000       0.00000000       0.05724647
Ti       0.00000000       0.00000000       5.58848485       0.00000000       0.00000000      -0.05724647
2
Properties=species:S:1:pos:R:3:forces:R:3 energy=-5.03811878143839 pbc="F F F"
Ti       0.00000000       0.00000000       0.00000000       0.00000000       0.00000000       0.05227248
Ti       0.00000000       0.00000000       5.64727273       0.00000000       0.00000000      -0.05227248
2
Properties=species:S:1:pos:R:3:forces:R:3 energy=-5.035216190737014 pbc="F F F"
Ti       0.00000000       0.00000000       0.00000000       0.00000000       0.00000000       0.04637573
Ti       0.00000000       0.00000000       5.70606061       0.00000000       0.00000000      -0.04637573
2
Properties=species:S:1:pos:R:3:forces:R:3 energy=-5.032671325575863 pbc="F F F"
Ti       0.00000000       0.00000000       0.00000000       0.00000000       0.00000000       0.04014378
Ti       0.00000000       0.00000000       5.76484848       0.00000000       0.00000000      -0.04014378
2
Properties=species:S:1:pos:R:3:forces:R:3 energy=-5.030490049368546 pbc="F F F"
Ti       0.00000000       0.00000000       0.00000000       0.00000000       0.00000000       0.03419158
Ti       0.00000000       0.00000000       5.82363636       0.00000000       0.00000000      -0.03419158
2
Properties=species:S:1:pos:R:3:forces:R:3 energy=-5.02863636055725 pbc="F F F"
Ti       0.00000000       0.00000000       0.00000000       0.00000000       0.00000000       0.02907989
Ti       0.00000000       0.00000000       5.88242424       0.00000000       0.00000000      -0.02907989
2
Properties=species:S:1:pos:R:3:forces:R:3 energy=-5.027045460453165 pbc="F F F"
Ti       0.00000000       0.00000000       0.00000000       0.00000000       0.00000000       0.02526401
Ti       0.00000000       0.00000000       5.94121212       0.00000000       0.00000000      -0.02526401
2
Properties=species:S:1:pos:R:3:forces:R:3 energy=-5.025633318490041 pbc="F F F"
Ti       0.00000000       0.00000000       0.00000000       0.00000000       0.00000000       0.02308579
Ti       0.00000000       0.00000000       6.00000000       0.00000000       0.00000000      -0.02308579
