2
Properties=species:S:1:pos:R:3:forces:R:3 energy=13419.941767227383 pbc="F F F"
V        0.00000000       0.00000000       0.00000000       0.00000000       0.00000000 -281679.40625000
V        0.00000000       0.00000000       0.10000000       0.00000000       0.00000000  281679.40625000
2
Properties=species:S:1:pos:R:3:forces:R:3 energy=4786.321161758633 pbc="F F F"
V        0.00000000       0.00000000       0.00000000       0.00000000       0.00000000  -68068.81250000
V        0.00000000       0.00000000       0.15959596       0.00000000       0.00000000   68068.81250000
2
Properties=species:S:1:pos:R:3:forces:R:3 energy=2360.2247262117576 pbc="F F F"
V        0.00000000       0.00000000       0.00000000       0.00000000       0.00000000  -22997.58007812
V        0.00000000       0.00000000       0.21919192       0.00000000       0.00000000   22997.58007812
2
Properties=species:S:1:pos:R:3:forces:R:3 energy=1463.7363228914453 pbc="F F F"
V        0.00000000       0.00000000       0.00000000       0.00000000       0.00000000   -9461.18945312
V        0.00000000       0.00000000       0.27878788       0.00000000       0.00000000    9461.18945312
2
Properties=species:S:1:pos:R:3:forces:R:3 energy=1071.2471871555933 pbc="F F F"
V        0.00000000       0.00000000       0.00000000       0.00000000       0.00000000   -4463.36474609
V        0.00000000       0.00000000       0.33838384       0.00000000       0.00000000    4463.36474609
2
Properties=species:S:1:pos:R:3:forces:R:3 energy=875.8641305149683 pbc="F F F"
V        0.00000000       0.00000000       0.00000000       0.00000000       0.00000000   -2381.50415039
V        0.00000000       0.00000000       0.39797980       0.00000000       0.00000000    2381.50415039
2
Properties=species:S:1:pos:R:3:forces:R:3 energy=764.4166207620146 pbc="F F F"
V        0.00000000       0.00000000       0.00000000       0.00000000       0.00000000   -1487.32592773
V        0.00000000       0.00000000       0.45757576       0.00000000       0.00000000    1487.32592773
2
Properties=species:S:1:pos:R:3:forces:R:3 energy=687.5657907092323 pbc="F F F"
V        0.00000000       0.00000000       0.00000000       0.00000000       0.00000000   -1158.80151367
V        0.00000000       0.00000000       0.51717172       0.00000000       0.00000000    1158.80151367
2
Properties=species:S:1:pos:R:3:forces:R:3 energy=620.1140695558398 pbc="F F F"
V        0.00000000       0.00000000       0.00000000       0.00000000       0.00000000   -1145.35229492
V        0.00000000       0.00000000       0.57676768       0.00000000       0.00000000    1145.35229492
2
Properties=species:S:1:pos:R:3:forces:R:3 energy=547.1795603545238 pbc="F F F"
V        0.00000000       0.00000000       0.00000000       0.00000000       0.00000000   -1327.54357910
V        0.00000000       0.00000000       0.63636364       0.00000000       0.00000000    1327.54357910
2
Properties=species:S:1:pos:R:3:forces:R:3 energy=459.8127696907454 pbc="F F F"
V        0.00000000       0.00000000       0.00000000       0.00000000       0.00000000   -1612.75659180
V        0.00000000       0.00000000       0.69595960       0.00000000       0.00000000    1612.75659180
2
Properties=species:S:1:pos:R:3:forces:R:3 energy=355.3041333935341 pbc="F F F"
V        0.00000000       0.00000000       0.00000000       0.00000000       0.00000000   -1878.77111816
V        0.00000000       0.00000000       0.75555556       0.00000000       0.00000000    1878.77111816
2
Properties=species:S:1:pos:R:3:forces:R:3 energy=239.2519638534908 pbc="F F F"
V        0.00000000       0.00000000       0.00000000       0.00000000       0.00000000   -1784.87194824
V        0.00000000       0.00000000       0.81515152       0.00000000       0.00000000    1784.87194824
2
Properties=species:S:1:pos:R:3:forces:R:3 energy=147.7457996828482 pbc="F F F"
V        0.00000000       0.00000000       0.00000000       0.00000000       0.00000000   -1426.07434082
V        0.00000000       0.00000000       0.87474747       0.00000000       0.00000000    1426.07434082
2
Properties=species:S:1:pos:R:3:forces:R:3 energy=76.12973424237407 pbc="F F F"
V        0.00000000       0.00000000       0.00000000       0.00000000       0.00000000   -1012.57177734
V        0.00000000       0.00000000       0.93434343       0.00000000       0.00000000    1012.57177734
2
Properties=species:S:1:pos:R:3:forces:R:3 energy=29.254176130495033 pbc="F F F"
V        0.00000000       0.00000000       0.00000000       0.00000000       0.00000000    -545.35595703
V        0.00000000       0.00000000       0.99393939       0.00000000       0.00000000     545.35595703
2
Properties=species:S:1:pos:R:3:forces:R:3 energy=10.300188102596168 pbc="F F F"
V        0.00000000       0.00000000       0.00000000       0.00000000       0.00000000    -138.89129639
V        0.00000000       0.00000000       1.05353535       0.00000000       0.00000000     138.89129639
2
Properties=species:S:1:pos:R:3:forces:R:3 energy=3.488805721540112 pbc="F F F"
V        0.00000000       0.00000000       0.00000000       0.00000000       0.00000000     -99.89255524
V        0.00000000       0.00000000       1.11313131       0.00000000       0.00000000      99.89255524
2
Properties=species:S:1:pos:R:3:forces:R:3 energy=-1.9552890697260674 pbc="F F F"
V        0.00000000       0.00000000       0.00000000       0.00000000       0.00000000     -81.03226471
V        0.00000000       0.00000000       1.17272727       0.00000000       0.00000000      81.03226471
2
Properties=species:S:1:pos:R:3:forces:R:3 energy=-5.4855005964067685 pbc="F F F"
V        0.00000000       0.00000000       0.00000000       0.00000000       0.00000000     -38.02361679
V        0.00000000       0.00000000       1.23232323       0.00000000       0.00000000      38.02361679
2
Properties=species:S:1:pos:R:3:forces:R:3 energy=-7.053735896022698 pbc="F F F"
V        0.00000000       0.00000000       0.00000000       0.00000000       0.00000000     -19.09104729
V        0.00000000       0.00000000       1.29191919       0.00000000       0.00000000      19.09104729
2
Properties=species:S:1:pos:R:3:forces:R:3 energy=-8.030065757149693 pbc="F F F"
V        0.00000000       0.00000000       0.00000000       0.00000000       0.00000000     -14.27836800
V        0.00000000       0.00000000       1.35151515       0.00000000       0.00000000      14.27836800
2
Properties=species:S:1:pos:R:3:forces:R:3 energy=-8.761398578061295 pbc="F F F"
V        0.00000000       0.00000000       0.00000000       0.00000000       0.00000000     -10.17660046
V        0.00000000       0.00000000       1.41111111       0.00000000       0.00000000      10.17660046
2
Properties=species:S:1:pos:R:3:forces:R:3 energy=-9.238893601439443 pbc="F F F"
V        0.00000000       0.00000000       0.00000000       0.00000000       0.00000000      -5.86891031
V        0.00000000       0.00000000       1.47070707       0.00000000       0.00000000       5.86891031
2
Properties=species:S:1:pos:R:3:forces:R:3 energy=-9.471999610663541 pbc="F F F"
V        0.00000000       0.00000000       0.00000000       0.00000000       0.00000000      -2.13339329
V        0.00000000       0.00000000       1.53030303       0.00000000       0.00000000       2.13339329
2
Properties=species:S:1:pos:R:3:forces:R:3 energy=-9.520830278175103 pbc="F F F"
V        0.00000000       0.00000000       0.00000000       0.00000000       0.00000000       0.25864673
V        0.00000000       0.00000000       1.58989899       0.00000000       0.00000000      -0.25864673
2
Properties=species:S:1:pos:R:3:forces:R:3 energy=-9.464938916660465 pbc="F F F"
V        0.00000000       0.00000000       0.00000000       0.00000000       0.00000000       1.45353210
V        0.00000000       0.00000000       1.64949495       0.00000000       0.00000000      -1.45353210
2
Properties=species:S:1:pos:R:3:forces:R:3 energy=-9.36359793743683 pbc="F F F"
V        0.00000000       0.00000000       0.00000000       0.00000000       0.00000000       1.84331155
V        0.00000000       0.00000000       1.70909091       0.00000000       0.00000000      -1.84331155
2
Properties=species:S:1:pos:R:3:forces:R:3 energy=-9.253748761118556 pbc="F F F"
V        0.00000000       0.00000000       0.00000000       0.00000000       0.00000000       1.80087590
V        0.00000000       0.00000000       1.76868687       0.00000000       0.00000000      -1.80087590
2
Properties=species:S:1:pos:R:3:forces:R:3 energy=-9.151855323328801 pbc="F F F"
V        0.00000000       0.00000000       0.00000000       0.00000000       0.00000000       1.60419178
V        0.00000000       0.00000000       1.82828283       0.00000000       0.00000000      -1.60419178
2
Properties=species:S:1:pos:R:3:forces:R:3 energy=-9.063991753186794 pbc="F F F"
V        0.00000000       0.00000000       0.00000000       0.00000000       0.00000000       1.33288145
V        0.00000000       0.00000000       1.88787879       0.00000000       0.00000000      -1.33288145
2
Properties=species:S:1:pos:R:3:forces:R:3 energy=-8.994107900286359 pbc="F F F"
V        0.00000000       0.00000000       0.00000000       0.00000000       0.00000000       1.00766706
V        0.00000000       0.00000000       1.94747475       0.00000000       0.00000000      -1.00766706
2
Properties=species:S:1:pos:R:3:forces:R:3 energy=-8.943420557700863 pbc="F F F"
V        0.00000000       0.00000000       0.00000000       0.00000000       0.00000000       0.70730090
V        0.00000000       0.00000000       2.00707071       0.00000000       0.00000000      -0.70730090
2
Properties=species:S:1:pos:R:3:forces:R:3 energy=-8.906986742109957 pbc="F F F"
V        0.00000000       0.00000000       0.00000000       0.00000000       0.00000000       0.54669690
V        0.00000000       0.00000000       2.06666667       0.00000000       0.00000000      -0.54669690
2
Properties=species:S:1:pos:R:3:forces:R:3 energy=-8.87429728137793 pbc="F F F"
V        0.00000000       0.00000000       0.00000000       0.00000000       0.00000000       0.58094800
V        0.00000000       0.00000000       2.12626263       0.00000000       0.00000000      -0.58094800
2
Properties=species:S:1:pos:R:3:forces:R:3 energy=-8.835216722364763 pbc="F F F"
V        0.00000000       0.00000000       0.00000000       0.00000000       0.00000000       0.73842680
V        0.00000000       0.00000000       2.18585859       0.00000000       0.00000000      -0.73842680
2
Properties=species:S:1:pos:R:3:forces:R:3 energy=-8.78737052021186 pbc="F F F"
V        0.00000000       0.00000000       0.00000000       0.00000000       0.00000000       0.84064257
V        0.00000000       0.00000000       2.24545455       0.00000000       0.00000000      -0.84064257
2
Properties=species:S:1:pos:R:3:forces:R:3 energy=-8.739947454251734 pbc="F F F"
V        0.00000000       0.00000000       0.00000000       0.00000000       0.00000000       0.69867426
V        0.00000000       0.00000000       2.30505051       0.00000000       0.00000000      -0.69867426
2
Properties=species:S:1:pos:R:3:forces:R:3 energy=-8.710541295139766 pbc="F F F"
V        0.00000000       0.00000000       0.00000000       0.00000000       0.00000000       0.23955081
V        0.00000000       0.00000000       2.36464646       0.00000000       0.00000000      -0.23955081
2
Properties=species:S:1:pos:R:3:forces:R:3 energy=-8.715202560631592 pbc="F F F"
V        0.00000000       0.00000000       0.00000000       0.00000000       0.00000000      -0.40491977
V        0.00000000       0.00000000       2.42424242       0.00000000       0.00000000       0.40491977
2
Properties=species:S:1:pos:R:3:forces:R:3 energy=-8.75652415842031 pbc="F F F"
V        0.00000000       0.00000000       0.00000000       0.00000000       0.00000000      -0.93522334
V        0.00000000       0.00000000       2.48383838       0.00000000       0.00000000       0.93522334
2
Properties=species:S:1:pos:R:3:forces:R:3 energy=-8.81868135718636 pbc="F F F"
V        0.00000000       0.00000000       0.00000000       0.00000000       0.00000000      -1.07104456
V        0.00000000       0.00000000       2.54343434       0.00000000       0.00000000       1.07104456
2
Properties=species:S:1:pos:R:3:forces:R:3 energy=-8.874794371960505 pbc="F F F"
V        0.00000000       0.00000000       0.00000000       0.00000000       0.00000000      -0.74248117
V        0.00000000       0.00000000       2.60303030       0.00000000       0.00000000       0.74248117
2
Properties=species:S:1:pos:R:3:forces:R:3 energy=-8.901012984278907 pbc="F F F"
V        0.00000000       0.00000000       0.00000000       0.00000000       0.00000000      -0.10635392
V        0.00000000       0.00000000       2.66262626       0.00000000       0.00000000       0.10635392
2
Properties=species:S:1:pos:R:3:forces:R:3 energy=-8.886213356912531 pbc="F F F"
V        0.00000000       0.00000000       0.00000000       0.00000000       0.00000000       0.59540904
V        0.00000000       0.00000000       2.72222222       0.00000000       0.00000000      -0.59540904
2
Properties=species:S:1:pos:R:3:forces:R:3 energy=-8.832509204812938 pbc="F F F"
V        0.00000000       0.00000000       0.00000000       0.00000000       0.00000000       1.17711484
V        0.00000000       0.00000000       2.78181818       0.00000000       0.00000000      -1.17711484
2
Properties=species:S:1:pos:R:3:forces:R:3 energy=-8.749869941247209 pbc="F F F"
V        0.00000000       0.00000000       0.00000000       0.00000000       0.00000000       1.56272948
V        0.00000000       0.00000000       2.84141414       0.00000000       0.00000000      -1.56272948
2
Properties=species:S:1:pos:R:3:forces:R:3 energy=-8.64986768604768 pbc="F F F"
V        0.00000000       0.00000000       0.00000000       0.00000000       0.00000000       1.76695919
V        0.00000000       0.00000000       2.90101010       0.00000000       0.00000000      -1.76695919
2
Properties=species:S:1:pos:R:3:forces:R:3 energy=-8.54196886657984 pbc="F F F"
V        0.00000000       0.00000000       0.00000000       0.00000000       0.00000000       1.83400488
V        0.00000000       0.00000000       2.96060606       0.00000000       0.00000000      -1.83400488
2
Properties=species:S:1:pos:R:3:forces:R:3 energy=-8.433446016551503 pbc="F F F"
V        0.00000000       0.00000000       0.00000000       0.00000000       0.00000000       1.79149306
V        0.00000000       0.00000000       3.02020202       0.00000000       0.00000000      -1.79149306
2
Properties=species:S:1:pos:R:3:forces:R:3 energy=-8.330065210155086 pbc="F F F"
V        0.00000000       0.00000000       0.00000000       0.00000000       0.00000000       1.66766536
V        0.00000000       0.00000000       3.07979798       0.00000000       0.00000000      -1.66766536
2
Properties=species:S:1:pos:R:3:forces:R:3 energy=-8.235465932578435 pbc="F F F"
V        0.00000000       0.00000000       0.00000000       0.00000000       0.00000000       1.50366938
V        0.00000000       0.00000000       3.13939394       0.00000000       0.00000000      -1.50366938
2
Properties=species:S:1:pos:R:3:forces:R:3 energy=-8.150940940261636 pbc="F F F"
V        0.00000000       0.00000000       0.00000000       0.00000000       0.00000000       1.33399403
V        0.00000000       0.00000000       3.19898990       0.00000000       0.00000000      -1.33399403
2
Properties=species:S:1:pos:R:3:forces:R:3 energy=-8.076206684055261 pbc="F F F"
V        0.00000000       0.00000000       0.00000000       0.00000000       0.00000000       1.17693448
V        0.00000000       0.00000000       3.25858586       0.00000000       0.00000000      -1.17693448
2
Properties=species:S:1:pos:R:3:forces:R:3 energy=-8.010250765934995 pbc="F F F"
V        0.00000000       0.00000000       0.00000000       0.00000000       0.00000000       1.04032481
V        0.00000000       0.00000000       3.31818182       0.00000000       0.00000000      -1.04032481
2
Properties=species:S:1:pos:R:3:forces:R:3 energy=-7.951717251484258 pbc="F F F"
V        0.00000000       0.00000000       0.00000000       0.00000000       0.00000000       0.92844766
V        0.00000000       0.00000000       3.37777778       0.00000000       0.00000000      -0.92844766
2
Properties=species:S:1:pos:R:3:forces:R:3 energy=-7.8990341140605125 pbc="F F F"
V        0.00000000       0.00000000       0.00000000       0.00000000       0.00000000       0.84435558
V        0.00000000       0.00000000       3.43737374       0.00000000       0.00000000      -0.84435558
2
Properties=species:S:1:pos:R:3:forces:R:3 energy=-7.850516326532401 pbc="F F F"
V        0.00000000       0.00000000       0.00000000       0.00000000       0.00000000       0.78830034
V        0.00000000       0.00000000       3.49696970       0.00000000       0.00000000      -0.78830034
2
Properties=species:S:1:pos:R:3:forces:R:3 energy=-7.804614002064874 pbc="F F F"
V        0.00000000       0.00000000       0.00000000       0.00000000       0.00000000       0.75521797
V        0.00000000       0.00000000       3.55656566       0.00000000       0.00000000      -0.75521797
2
Properties=species:S:1:pos:R:3:forces:R:3 energy=-7.760259141448692 pbc="F F F"
V        0.00000000       0.00000000       0.00000000       0.00000000       0.00000000       0.73418117
V        0.00000000       0.00000000       3.61616162       0.00000000       0.00000000      -0.73418117
2
Properties=species:S:1:pos:R:3:forces:R:3 energy=-7.71714784601448 pbc="F F F"
V        0.00000000       0.00000000       0.00000000       0.00000000       0.00000000       0.71108323
V        0.00000000       0.00000000       3.67575758       0.00000000       0.00000000      -0.71108323
2
Properties=species:S:1:pos:R:3:forces:R:3 energy=-7.675799103315553 pbc="F F F"
V        0.00000000       0.00000000       0.00000000       0.00000000       0.00000000       0.67331964
V        0.00000000       0.00000000       3.73535354       0.00000000       0.00000000      -0.67331964
2
Properties=species:S:1:pos:R:3:forces:R:3 energy=-7.637328210122374 pbc="F F F"
V        0.00000000       0.00000000       0.00000000       0.00000000       0.00000000       0.61392254
V        0.00000000       0.00000000       3.79494949       0.00000000       0.00000000      -0.61392254
2
Properties=species:S:1:pos:R:3:forces:R:3 energy=-7.603053077656099 pbc="F F F"
V        0.00000000       0.00000000       0.00000000       0.00000000       0.00000000       0.53315634
V        0.00000000       0.00000000       3.85454545       0.00000000       0.00000000      -0.53315634
2
Properties=species:S:1:pos:R:3:forces:R:3 energy=-7.574082599079981 pbc="F F F"
V        0.00000000       0.00000000       0.00000000       0.00000000       0.00000000       0.43730623
V        0.00000000       0.00000000       3.91414141       0.00000000       0.00000000      -0.43730623
2
Properties=species:S:1:pos:R:3:forces:R:3 energy=-7.551041801226904 pbc="F F F"
V        0.00000000       0.00000000       0.00000000       0.00000000       0.00000000       0.33580017
V        0.00000000       0.00000000       3.97373737       0.00000000       0.00000000      -0.33580017
2
Properties=species:S:1:pos:R:3:forces:R:3 energy=-7.533977950364905 pbc="F F F"
V        0.00000000       0.00000000       0.00000000       0.00000000       0.00000000       0.23823765
V        0.00000000       0.00000000       4.03333333       0.00000000       0.00000000      -0.23823765
2
Properties=species:S:1:pos:R:3:forces:R:3 energy=-7.522413223024142 pbc="F F F"
V        0.00000000       0.00000000       0.00000000       0.00000000       0.00000000       0.15229142
V        0.00000000       0.00000000       4.09292929       0.00000000       0.00000000      -0.15229142
2
Properties=species:S:1:pos:R:3:forces:R:3 energy=-7.515496572968212 pbc="F F F"
V        0.00000000       0.00000000       0.00000000       0.00000000       0.00000000       0.08283210
V        0.00000000       0.00000000       4.15252525       0.00000000       0.00000000      -0.08283210
2
Properties=species:S:1:pos:R:3:forces:R:3 energy=-7.512170556171272 pbc="F F F"
V        0.00000000       0.00000000       0.00000000       0.00000000       0.00000000       0.03192049
V        0.00000000       0.00000000       4.21212121       0.00000000       0.00000000      -0.03192049
2
Properties=species:S:1:pos:R:3:forces:R:3 energy=-7.511327459309382 pbc="F F F"
V        0.00000000       0.00000000       0.00000000       0.00000000       0.00000000      -0.00069385
V        0.00000000       0.00000000       4.27171717       0.00000000       0.00000000       0.00069385
2
Properties=species:S:1:pos:R:3:forces:R:3 energy=-7.511927175237091 pbc="F F F"
V        0.00000000       0.00000000       0.00000000       0.00000000       0.00000000      -0.01692874
V        0.00000000       0.00000000       4.33131313       0.00000000       0.00000000       0.01692874
2
Properties=species:S:1:pos:R:3:forces:R:3 energy=-7.513078252633035 pbc="F F F"
V        0.00000000       0.00000000       0.00000000       0.00000000       0.00000000      -0.01974992
V        0.00000000       0.00000000       4.39090909       0.00000000       0.00000000       0.01974992
2
Properties=species:S:1:pos:R:3:forces:R:3 energy=-7.5140833682562 pbc="F F F"
V        0.00000000       0.00000000       0.00000000       0.00000000       0.00000000      -0.01261665
V        0.00000000       0.00000000       4.45050505       0.00000000       0.00000000       0.01261665
2
Properties=species:S:1:pos:R:3:forces:R:3 energy=-7.514453587711165 pbc="F F F"
V        0.00000000       0.00000000       0.00000000       0.00000000       0.00000000       0.00098427
V        0.00000000       0.00000000       4.51010101       0.00000000       0.00000000      -0.00098427
2
Properties=species:S:1:pos:R:3:forces:R:3 energy=-7.513900210195081 pbc="F F F"
V        0.00000000       0.00000000       0.00000000       0.00000000       0.00000000       0.01790967
V        0.00000000       0.00000000       4.56969697       0.00000000       0.00000000      -0.01790967
2
Properties=species:S:1:pos:R:3:forces:R:3 energy=-7.5123044029750226 pbc="F F F"
V        0.00000000       0.00000000       0.00000000       0.00000000       0.00000000       0.03559930
V        0.00000000       0.00000000       4.62929293       0.00000000       0.00000000      -0.03559930
2
Properties=species:S:1:pos:R:3:forces:R:3 energy=-7.509679933725745 pbc="F F F"
V        0.00000000       0.00000000       0.00000000       0.00000000       0.00000000       0.05217447
V        0.00000000       0.00000000       4.68888889       0.00000000       0.00000000      -0.05217447
2
Properties=species:S:1:pos:R:3:forces:R:3 energy=-7.506132664713814 pbc="F F F"
V        0.00000000       0.00000000       0.00000000       0.00000000       0.00000000       0.06640899
V        0.00000000       0.00000000       4.74848485       0.00000000       0.00000000      -0.06640899
2
Properties=species:S:1:pos:R:3:forces:R:3 energy=-7.501824848695378 pbc="F F F"
V        0.00000000       0.00000000       0.00000000       0.00000000       0.00000000       0.07761720
V        0.00000000       0.00000000       4.80808081       0.00000000       0.00000000      -0.07761720
2
Properties=species:S:1:pos:R:3:forces:R:3 energy=-7.496946651735207 pbc="F F F"
V        0.00000000       0.00000000       0.00000000       0.00000000       0.00000000       0.08554465
V        0.00000000       0.00000000       4.86767677       0.00000000       0.00000000      -0.08554465
2
Properties=species:S:1:pos:R:3:forces:R:3 energy=-7.491692465068074 pbc="F F F"
V        0.00000000       0.00000000       0.00000000       0.00000000       0.00000000       0.09026051
V        0.00000000       0.00000000       4.92727273       0.00000000       0.00000000      -0.09026051
2
Properties=species:S:1:pos:R:3:forces:R:3 energy=-7.48624563680624 pbc="F F F"
V        0.00000000       0.00000000       0.00000000       0.00000000       0.00000000       0.09208734
V        0.00000000       0.00000000       4.98686869       0.00000000       0.00000000      -0.09208734
2
Properties=species:S:1:pos:R:3:forces:R:3 energy=-7.480764150985581 pbc="F F F"
V        0.00000000       0.00000000       0.00000000       0.00000000       0.00000000       0.09152038
V        0.00000000       0.00000000       5.04646465       0.00000000       0.00000000      -0.09152038
2
Properties=species:S:1:pos:R:3:forces:R:3 energy=-7.475373322952764 pbc="F F F"
V        0.00000000       0.00000000       0.00000000       0.00000000       0.00000000       0.08913334
V        0.00000000       0.00000000       5.10606061       0.00000000       0.00000000      -0.08913334
2
Properties=species:S:1:pos:R:3:forces:R:3 energy=-7.470165035760254 pbc="F F F"
V        0.00000000       0.00000000       0.00000000       0.00000000       0.00000000       0.08547098
V        0.00000000       0.00000000       5.16565657       0.00000000       0.00000000      -0.08547098
2
Properties=species:S:1:pos:R:3:forces:R:3 energy=-7.46520243884581 pbc="F F F"
V        0.00000000       0.00000000       0.00000000       0.00000000       0.00000000       0.08097141
V        0.00000000       0.00000000       5.22525253       0.00000000       0.00000000      -0.08097141
2
Properties=species:S:1:pos:R:3:forces:R:3 energy=-7.460524763921399 pbc="F F F"
V        0.00000000       0.00000000       0.00000000       0.00000000       0.00000000       0.07593058
V        0.00000000       0.00000000       5.28484848       0.00000000       0.00000000      -0.07593058
2
Properties=species:S:1:pos:R:3:forces:R:3 energy=-7.456158924288278 pbc="F F F"
V        0.00000000       0.00000000       0.00000000       0.00000000       0.00000000       0.07052645
V        0.00000000       0.00000000       5.34444444       0.00000000       0.00000000      -0.07052645
2
Properties=species:S:1:pos:R:3:forces:R:3 energy=-7.452123781028843 pbc="F F F"
V        0.00000000       0.00000000       0.00000000       0.00000000       0.00000000       0.06485823
V        0.00000000       0.00000000       5.40404040       0.00000000       0.00000000      -0.06485823
2
Properties=species:S:1:pos:R:3:forces:R:3 energy=-7.448431760419604 pbc="F F F"
V        0.00000000       0.00000000       0.00000000       0.00000000       0.00000000       0.05900766
V        0.00000000       0.00000000       5.46363636       0.00000000       0.00000000      -0.05900766
2
Properties=species:S:1:pos:R:3:forces:R:3 energy=-7.445092703474503 pbc="F F F"
V        0.00000000       0.00000000       0.00000000       0.00000000       0.00000000       0.05306877
V        0.00000000       0.00000000       5.52323232       0.00000000       0.00000000      -0.05306877
2
Properties=species:S:1:pos:R:3:forces:R:3 energy=-7.442106375934551 pbc="F F F"
V        0.00000000       0.00000000       0.00000000       0.00000000       0.00000000       0.04716433
V        0.00000000       0.00000000       5.58282828       0.00000000       0.00000000      -0.04716433
2
Properties=species:S:1:pos:R:3:forces:R:3 energy=-7.439467707140925 pbc="F F F"
V        0.00000000       0.00000000       0.00000000       0.00000000       0.00000000       0.04143543
V        0.00000000       0.00000000       5.64242424       0.00000000       0.00000000      -0.04143543
2
Properties=species:S:1:pos:R:3:forces:R:3 energy=-7.4371607907247075 pbc="F F F"
V        0.00000000       0.00000000       0.00000000       0.00000000       0.00000000       0.03603349
V        0.00000000       0.00000000       5.70202020       0.00000000       0.00000000      -0.03603349
2
Properties=species:S:1:pos:R:3:forces:R:3 energy=-7.4351632030678 pbc="F F F"
V        0.00000000       0.00000000       0.00000000       0.00000000       0.00000000       0.03111061
V        0.00000000       0.00000000       5.76161616       0.00000000       0.00000000      -0.03111061
2
Properties=species:S:1:pos:R:3:forces:R:3 energy=-7.43344030818351 pbc="F F F"
V        0.00000000       0.00000000       0.00000000       0.00000000       0.00000000       0.02681679
V        0.00000000       0.00000000       5.82121212       0.00000000       0.00000000      -0.02681679
2
Properties=species:S:1:pos:R:3:forces:R:3 energy=-7.431952087076142 pbc="F F F"
V        0.00000000       0.00000000       0.00000000       0.00000000       0.00000000       0.02328528
V        0.00000000       0.00000000       5.88080808       0.00000000       0.00000000      -0.02328528
2
Properties=species:S:1:pos:R:3:forces:R:3 energy=-7.430646913515362 pbc="F F F"
V        0.00000000       0.00000000       0.00000000       0.00000000       0.00000000       0.02064799
V        0.00000000       0.00000000       5.94040404       0.00000000       0.00000000      -0.02064799
2
Properties=species:S:1:pos:R:3:forces:R:3 energy=-7.429470718480337 pbc="F F F"
V        0.00000000       0.00000000       0.00000000       0.00000000       0.00000000       0.01901128
V        0.00000000       0.00000000       6.00000000       0.00000000       0.00000000      -0.01901128
