2
Properties=species:S:1:pos:R:3:forces:R:3 energy=3644.6485543367576 pbc="F F F"
V        0.00000000       0.00000000       0.00000000       0.00000000       0.00000000  -45641.83984375
V        0.00000000       0.00000000       0.18000000       0.00000000       0.00000000   45641.83984375
2
Properties=species:S:1:pos:R:3:forces:R:3 energy=1973.3223824617578 pbc="F F F"
V        0.00000000       0.00000000       0.00000000       0.00000000       0.00000000  -16870.15234375
V        0.00000000       0.00000000       0.23878788       0.00000000       0.00000000   16870.15234375
2
Properties=species:S:1:pos:R:3:forces:R:3 energy=1306.6295113680078 pbc="F F F"
V        0.00000000       0.00000000       0.00000000       0.00000000       0.00000000   -7367.92236328
V        0.00000000       0.00000000       0.29757576       0.00000000       0.00000000    7367.92236328
2
Properties=species:S:1:pos:R:3:forces:R:3 energy=998.6884103001246 pbc="F F F"
V        0.00000000       0.00000000       0.00000000       0.00000000       0.00000000   -3642.99169922
V        0.00000000       0.00000000       0.35636364       0.00000000       0.00000000    3642.99169922
2
Properties=species:S:1:pos:R:3:forces:R:3 energy=838.0137887180933 pbc="F F F"
V        0.00000000       0.00000000       0.00000000       0.00000000       0.00000000   -2040.64489746
V        0.00000000       0.00000000       0.41515152       0.00000000       0.00000000    2040.64489746
2
Properties=species:S:1:pos:R:3:forces:R:3 energy=741.2105660808503 pbc="F F F"
V        0.00000000       0.00000000       0.00000000       0.00000000       0.00000000   -1355.30895996
V        0.00000000       0.00000000       0.47393939       0.00000000       0.00000000    1355.30895996
2
Properties=species:S:1:pos:R:3:forces:R:3 energy=669.7810617116617 pbc="F F F"
V        0.00000000       0.00000000       0.00000000       0.00000000       0.00000000   -1130.98315430
V        0.00000000       0.00000000       0.53272727       0.00000000       0.00000000    1130.98315430
2
Properties=species:S:1:pos:R:3:forces:R:3 energy=603.0158640021049 pbc="F F F"
V        0.00000000       0.00000000       0.00000000       0.00000000       0.00000000   -1175.70239258
V        0.00000000       0.00000000       0.59151515       0.00000000       0.00000000    1175.70239258
2
Properties=species:S:1:pos:R:3:forces:R:3 energy=528.2519480625076 pbc="F F F"
V        0.00000000       0.00000000       0.00000000       0.00000000       0.00000000   -1388.78393555
V        0.00000000       0.00000000       0.65030303       0.00000000       0.00000000    1388.78393555
2
Properties=species:S:1:pos:R:3:forces:R:3 energy=438.20501215406426 pbc="F F F"
V        0.00000000       0.00000000       0.00000000       0.00000000       0.00000000   -1678.19519043
V        0.00000000       0.00000000       0.70909091       0.00000000       0.00000000    1678.19519043
2
Properties=species:S:1:pos:R:3:forces:R:3 energy=331.90441419960234 pbc="F F F"
V        0.00000000       0.00000000       0.00000000       0.00000000       0.00000000   -1917.74340820
V        0.00000000       0.00000000       0.76787879       0.00000000       0.00000000    1917.74340820
2
Properties=species:S:1:pos:R:3:forces:R:3 energy=220.48656779868318 pbc="F F F"
V        0.00000000       0.00000000       0.00000000       0.00000000       0.00000000   -1534.98767090
V        0.00000000       0.00000000       0.82666667       0.00000000       0.00000000    1534.98767090
2
Properties=species:S:1:pos:R:3:forces:R:3 energy=132.92403768025065 pbc="F F F"
V        0.00000000       0.00000000       0.00000000       0.00000000       0.00000000   -1340.48645020
V        0.00000000       0.00000000       0.88545455       0.00000000       0.00000000    1340.48645020
2
Properties=species:S:1:pos:R:3:forces:R:3 energy=66.36346085154486 pbc="F F F"
V        0.00000000       0.00000000       0.00000000       0.00000000       0.00000000    -960.46166992
V        0.00000000       0.00000000       0.94424242       0.00000000       0.00000000     960.46166992
2
Properties=species:S:1:pos:R:3:forces:R:3 energy=24.4636393830504 pbc="F F F"
V        0.00000000       0.00000000       0.00000000       0.00000000       0.00000000    -496.59274292
V        0.00000000       0.00000000       1.00303030       0.00000000       0.00000000     496.59274292
2
Properties=species:S:1:pos:R:3:forces:R:3 energy=9.206394398304365 pbc="F F F"
V        0.00000000       0.00000000       0.00000000       0.00000000       0.00000000    -126.47482300
V        0.00000000       0.00000000       1.06181818       0.00000000       0.00000000     126.47482300
2
Properties=species:S:1:pos:R:3:forces:R:3 energy=2.752730522974577 pbc="F F F"
V        0.00000000       0.00000000       0.00000000       0.00000000       0.00000000     -97.13035583
V        0.00000000       0.00000000       1.12060606       0.00000000       0.00000000      97.13035583
2
Properties=species:S:1:pos:R:3:forces:R:3 energy=-2.4816355188094255 pbc="F F F"
V        0.00000000       0.00000000       0.00000000       0.00000000       0.00000000     -76.75939941
V        0.00000000       0.00000000       1.17939394       0.00000000       0.00000000      76.75939941
2
Properties=species:S:1:pos:R:3:forces:R:3 energy=-5.698720456121671 pbc="F F F"
V        0.00000000       0.00000000       0.00000000       0.00000000       0.00000000     -34.82156754
V        0.00000000       0.00000000       1.23818182       0.00000000       0.00000000      34.82156754
2
Properties=species:S:1:pos:R:3:forces:R:3 energy=-7.148541328386967 pbc="F F F"
V        0.00000000       0.00000000       0.00000000       0.00000000       0.00000000     -18.46632385
V        0.00000000       0.00000000       1.29696970       0.00000000       0.00000000      18.46632385
2
Properties=species:S:1:pos:R:3:forces:R:3 energy=-8.090063011632518 pbc="F F F"
V        0.00000000       0.00000000       0.00000000       0.00000000       0.00000000     -14.00468540
V        0.00000000       0.00000000       1.35575758       0.00000000       0.00000000      14.00468540
2
Properties=species:S:1:pos:R:3:forces:R:3 energy=-8.795919376855641 pbc="F F F"
V        0.00000000       0.00000000       0.00000000       0.00000000       0.00000000      -9.92753315
V        0.00000000       0.00000000       1.41454545       0.00000000       0.00000000       9.92753315
2
Properties=species:S:1:pos:R:3:forces:R:3 energy=-9.254065314699513 pbc="F F F"
V        0.00000000       0.00000000       0.00000000       0.00000000       0.00000000      -5.68506002
V        0.00000000       0.00000000       1.47333333       0.00000000       0.00000000       5.68506002
2
Properties=species:S:1:pos:R:3:forces:R:3 energy=-9.475794987352712 pbc="F F F"
V        0.00000000       0.00000000       0.00000000       0.00000000       0.00000000      -2.03887224
V        0.00000000       0.00000000       1.53212121       0.00000000       0.00000000       2.03887224
2
Properties=species:S:1:pos:R:3:forces:R:3 energy=-9.52055450157091 pbc="F F F"
V        0.00000000       0.00000000       0.00000000       0.00000000       0.00000000       0.28759384
V        0.00000000       0.00000000       1.59090909       0.00000000       0.00000000      -0.28759384
2
Properties=species:S:1:pos:R:3:forces:R:3 energy=-9.46464419328283 pbc="F F F"
V        0.00000000       0.00000000       0.00000000       0.00000000       0.00000000       1.45602000
V        0.00000000       0.00000000       1.64969697       0.00000000       0.00000000      -1.45602000
2
Properties=species:S:1:pos:R:3:forces:R:3 energy=-9.364716787479304 pbc="F F F"
V        0.00000000       0.00000000       0.00000000       0.00000000       0.00000000       1.84216297
V        0.00000000       0.00000000       1.70848485       0.00000000       0.00000000      -1.84216297
2
Properties=species:S:1:pos:R:3:forces:R:3 energy=-9.256296361006825 pbc="F F F"
V        0.00000000       0.00000000       0.00000000       0.00000000       0.00000000       1.80433273
V        0.00000000       0.00000000       1.76727273       0.00000000       0.00000000      -1.80433273
2
Properties=species:S:1:pos:R:3:forces:R:3 energy=-9.155430404258853 pbc="F F F"
V        0.00000000       0.00000000       0.00000000       0.00000000       0.00000000       1.61294973
V        0.00000000       0.00000000       1.82606061       0.00000000       0.00000000      -1.61294973
2
Properties=species:S:1:pos:R:3:forces:R:3 energy=-9.06805451648861 pbc="F F F"
V        0.00000000       0.00000000       0.00000000       0.00000000       0.00000000       1.34831202
V        0.00000000       0.00000000       1.88484848       0.00000000       0.00000000      -1.34831202
2
Properties=species:S:1:pos:R:3:forces:R:3 energy=-8.998018500185717 pbc="F F F"
V        0.00000000       0.00000000       0.00000000       0.00000000       0.00000000       1.02907157
V        0.00000000       0.00000000       1.94363636       0.00000000       0.00000000      -1.02907157
2
Properties=species:S:1:pos:R:3:forces:R:3 energy=-8.94675442539328 pbc="F F F"
V        0.00000000       0.00000000       0.00000000       0.00000000       0.00000000       0.72706789
V        0.00000000       0.00000000       2.00242424       0.00000000       0.00000000      -0.72706789
2
Properties=species:S:1:pos:R:3:forces:R:3 energy=-8.909984605996428 pbc="F F F"
V        0.00000000       0.00000000       0.00000000       0.00000000       0.00000000       0.55330521
V        0.00000000       0.00000000       2.06121212       0.00000000       0.00000000      -0.55330521
2
Properties=species:S:1:pos:R:3:forces:R:3 energy=-8.877899366291794 pbc="F F F"
V        0.00000000       0.00000000       0.00000000       0.00000000       0.00000000       0.56921071
V        0.00000000       0.00000000       2.12000000       0.00000000       0.00000000      -0.56921071
2
Properties=species:S:1:pos:R:3:forces:R:3 energy=-8.84036772072769 pbc="F F F"
V        0.00000000       0.00000000       0.00000000       0.00000000       0.00000000       0.71858430
V        0.00000000       0.00000000       2.17878788       0.00000000       0.00000000      -0.71858430
2
Properties=species:S:1:pos:R:3:forces:R:3 energy=-8.793986084835238 pbc="F F F"
V        0.00000000       0.00000000       0.00000000       0.00000000       0.00000000       0.83768195
V        0.00000000       0.00000000       2.23757576       0.00000000       0.00000000      -0.83768195
2
Properties=species:S:1:pos:R:3:forces:R:3 energy=-8.746199506791406 pbc="F F F"
V        0.00000000       0.00000000       0.00000000       0.00000000       0.00000000       0.73941600
V        0.00000000       0.00000000       2.29636364       0.00000000       0.00000000      -0.73941600
2
Properties=species:S:1:pos:R:3:forces:R:3 energy=-8.713255417166042 pbc="F F F"
V        0.00000000       0.00000000       0.00000000       0.00000000       0.00000000       0.33113036
V        0.00000000       0.00000000       2.35515152       0.00000000       0.00000000      -0.33113036
2
Properties=species:S:1:pos:R:3:forces:R:3 energy=-8.711609535864122 pbc="F F F"
V        0.00000000       0.00000000       0.00000000       0.00000000       0.00000000      -0.29222292
V        0.00000000       0.00000000       2.41393939       0.00000000       0.00000000       0.29222292
2
Properties=species:S:1:pos:R:3:forces:R:3 energy=-8.746538846494499 pbc="F F F"
V        0.00000000       0.00000000       0.00000000       0.00000000       0.00000000      -0.85992151
V        0.00000000       0.00000000       2.47272727       0.00000000       0.00000000       0.85992151
2
Properties=species:S:1:pos:R:3:forces:R:3 energy=-8.805826830687332 pbc="F F F"
V        0.00000000       0.00000000       0.00000000       0.00000000       0.00000000      -1.08260429
V        0.00000000       0.00000000       2.53151515       0.00000000       0.00000000       1.08260429
2
Properties=species:S:1:pos:R:3:forces:R:3 energy=-8.864668036237513 pbc="F F F"
V        0.00000000       0.00000000       0.00000000       0.00000000       0.00000000      -0.84627694
V        0.00000000       0.00000000       2.59030303       0.00000000       0.00000000       0.84627694
2
Properties=species:S:1:pos:R:3:forces:R:3 energy=-8.898495184302725 pbc="F F F"
V        0.00000000       0.00000000       0.00000000       0.00000000       0.00000000      -0.26512629
V        0.00000000       0.00000000       2.64909091       0.00000000       0.00000000       0.26512629
2
Properties=species:S:1:pos:R:3:forces:R:3 energy=-8.89359121479109 pbc="F F F"
V        0.00000000       0.00000000       0.00000000       0.00000000       0.00000000       0.43219459
V        0.00000000       0.00000000       2.70787879       0.00000000       0.00000000      -0.43219459
2
Properties=species:S:1:pos:R:3:forces:R:3 energy=-8.849372554362464 pbc="F F F"
V        0.00000000       0.00000000       0.00000000       0.00000000       0.00000000       1.04670835
V        0.00000000       0.00000000       2.76666667       0.00000000       0.00000000      -1.04670835
2
Properties=species:S:1:pos:R:3:forces:R:3 energy=-8.774159794634059 pbc="F F F"
V        0.00000000       0.00000000       0.00000000       0.00000000       0.00000000       1.47898388
V        0.00000000       0.00000000       2.82545455       0.00000000       0.00000000      -1.47898388
2
Properties=species:S:1:pos:R:3:forces:R:3 energy=-8.679159200006058 pbc="F F F"
V        0.00000000       0.00000000       0.00000000       0.00000000       0.00000000       1.72510672
V        0.00000000       0.00000000       2.88424242       0.00000000       0.00000000      -1.72510672
2
Properties=species:S:1:pos:R:3:forces:R:3 energy=-8.574151861774006 pbc="F F F"
V        0.00000000       0.00000000       0.00000000       0.00000000       0.00000000       1.82654929
V        0.00000000       0.00000000       2.94303030       0.00000000       0.00000000      -1.82654929
2
Properties=species:S:1:pos:R:3:forces:R:3 energy=-8.466609201846259 pbc="F F F"
V        0.00000000       0.00000000       0.00000000       0.00000000       0.00000000       1.81494248
V        0.00000000       0.00000000       3.00181818       0.00000000       0.00000000      -1.81494248
2
Properties=species:S:1:pos:R:3:forces:R:3 energy=-8.362523456185409 pbc="F F F"
V        0.00000000       0.00000000       0.00000000       0.00000000       0.00000000       1.71398044
V        0.00000000       0.00000000       3.06060606       0.00000000       0.00000000      -1.71398044
2
Properties=species:S:1:pos:R:3:forces:R:3 energy=-8.26611202135821 pbc="F F F"
V        0.00000000       0.00000000       0.00000000       0.00000000       0.00000000       1.56071150
V        0.00000000       0.00000000       3.11939394       0.00000000       0.00000000      -1.56071150
2
Properties=species:S:1:pos:R:3:forces:R:3 energy=-8.179304255045318 pbc="F F F"
V        0.00000000       0.00000000       0.00000000       0.00000000       0.00000000       1.39243066
V        0.00000000       0.00000000       3.17818182       0.00000000       0.00000000      -1.39243066
2
Properties=species:S:1:pos:R:3:forces:R:3 energy=-8.102236906059089 pbc="F F F"
V        0.00000000       0.00000000       0.00000000       0.00000000       0.00000000       1.23182118
V        0.00000000       0.00000000       3.23696970       0.00000000       0.00000000      -1.23182118
2
Properties=species:S:1:pos:R:3:forces:R:3 energy=-8.034119513588898 pbc="F F F"
V        0.00000000       0.00000000       0.00000000       0.00000000       0.00000000       1.08902776
V        0.00000000       0.00000000       3.29575758       0.00000000       0.00000000      -1.08902776
2
Properties=species:S:1:pos:R:3:forces:R:3 energy=-7.973749284169694 pbc="F F F"
V        0.00000000       0.00000000       0.00000000       0.00000000       0.00000000       0.96889222
V        0.00000000       0.00000000       3.35454545       0.00000000       0.00000000      -0.96889222
2
Properties=species:S:1:pos:R:3:forces:R:3 energy=-7.919689204168297 pbc="F F F"
V        0.00000000       0.00000000       0.00000000       0.00000000       0.00000000       0.87482196
V        0.00000000       0.00000000       3.41333333       0.00000000       0.00000000      -0.87482196
2
Properties=species:S:1:pos:R:3:forces:R:3 energy=-7.870345700505689 pbc="F F F"
V        0.00000000       0.00000000       0.00000000       0.00000000       0.00000000       0.80844718
V        0.00000000       0.00000000       3.47212121       0.00000000       0.00000000      -0.80844718
2
Properties=species:S:1:pos:R:3:forces:R:3 energy=-7.82413861419499 pbc="F F F"
V        0.00000000       0.00000000       0.00000000       0.00000000       0.00000000       0.76722801
V        0.00000000       0.00000000       3.53090909       0.00000000       0.00000000      -0.76722801
2
Properties=species:S:1:pos:R:3:forces:R:3 energy=-7.779803869256434 pbc="F F F"
V        0.00000000       0.00000000       0.00000000       0.00000000       0.00000000       0.74291676
V        0.00000000       0.00000000       3.58969697       0.00000000       0.00000000      -0.74291676
2
Properties=species:S:1:pos:R:3:forces:R:3 energy=-7.736707038170472 pbc="F F F"
V        0.00000000       0.00000000       0.00000000       0.00000000       0.00000000       0.72280574
V        0.00000000       0.00000000       3.64848485       0.00000000       0.00000000      -0.72280574
2
Properties=species:S:1:pos:R:3:forces:R:3 energy=-7.695001349047504 pbc="F F F"
V        0.00000000       0.00000000       0.00000000       0.00000000       0.00000000       0.69354796
V        0.00000000       0.00000000       3.70727273       0.00000000       0.00000000      -0.69354796
2
Properties=species:S:1:pos:R:3:forces:R:3 energy=-7.655533609323535 pbc="F F F"
V        0.00000000       0.00000000       0.00000000       0.00000000       0.00000000       0.64556646
V        0.00000000       0.00000000       3.76606061       0.00000000       0.00000000      -0.64556646
2
Properties=species:S:1:pos:R:3:forces:R:3 energy=-7.619529619948651 pbc="F F F"
V        0.00000000       0.00000000       0.00000000       0.00000000       0.00000000       0.57579219
V        0.00000000       0.00000000       3.82484848       0.00000000       0.00000000      -0.57579219
2
Properties=species:S:1:pos:R:3:forces:R:3 energy=-7.588195995689147 pbc="F F F"
V        0.00000000       0.00000000       0.00000000       0.00000000       0.00000000       0.48770338
V        0.00000000       0.00000000       3.88363636       0.00000000       0.00000000      -0.48770338
2
Properties=species:S:1:pos:R:3:forces:R:3 energy=-7.562392045805725 pbc="F F F"
V        0.00000000       0.00000000       0.00000000       0.00000000       0.00000000       0.38922510
V        0.00000000       0.00000000       3.94242424       0.00000000       0.00000000      -0.38922510
2
Properties=species:S:1:pos:R:3:forces:R:3 energy=-7.542450614666699 pbc="F F F"
V        0.00000000       0.00000000       0.00000000       0.00000000       0.00000000       0.28980899
V        0.00000000       0.00000000       4.00121212       0.00000000       0.00000000      -0.28980899
2
Properties=species:S:1:pos:R:3:forces:R:3 energy=-7.528167318897814 pbc="F F F"
V        0.00000000       0.00000000       0.00000000       0.00000000       0.00000000       0.19798592
V        0.00000000       0.00000000       4.06000000       0.00000000       0.00000000      -0.19798592
2
Properties=species:S:1:pos:R:3:forces:R:3 energy=-7.51890053580181 pbc="F F F"
V        0.00000000       0.00000000       0.00000000       0.00000000       0.00000000       0.11994877
V        0.00000000       0.00000000       4.11878788       0.00000000       0.00000000      -0.11994877
2
Properties=species:S:1:pos:R:3:forces:R:3 energy=-7.513725252361964 pbc="F F F"
V        0.00000000       0.00000000       0.00000000       0.00000000       0.00000000       0.05914073
V        0.00000000       0.00000000       4.17757576       0.00000000       0.00000000      -0.05914073
2
Properties=species:S:1:pos:R:3:forces:R:3 energy=-7.511589014671564 pbc="F F F"
V        0.00000000       0.00000000       0.00000000       0.00000000       0.00000000       0.01652343
V        0.00000000       0.00000000       4.23636364       0.00000000       0.00000000      -0.01652343
2
Properties=species:S:1:pos:R:3:forces:R:3 energy=-7.511444190888607 pbc="F F F"
V        0.00000000       0.00000000       0.00000000       0.00000000       0.00000000      -0.00888493
V        0.00000000       0.00000000       4.29515152       0.00000000       0.00000000       0.00888493
2
Properties=species:S:1:pos:R:3:forces:R:3 energy=-7.512341253920764 pbc="F F F"
V        0.00000000       0.00000000       0.00000000       0.00000000       0.00000000      -0.01939738
V        0.00000000       0.00000000       4.35393939       0.00000000       0.00000000       0.01939738
2
Properties=species:S:1:pos:R:3:forces:R:3 energy=-7.513493320832328 pbc="F F F"
V        0.00000000       0.00000000       0.00000000       0.00000000       0.00000000      -0.01810543
V        0.00000000       0.00000000       4.41272727       0.00000000       0.00000000       0.01810543
2
Properties=species:S:1:pos:R:3:forces:R:3 energy=-7.514304915129171 pbc="F F F"
V        0.00000000       0.00000000       0.00000000       0.00000000       0.00000000      -0.00838757
V        0.00000000       0.00000000       4.47151515       0.00000000       0.00000000       0.00838757
2
Properties=species:S:1:pos:R:3:forces:R:3 energy=-7.51437859979328 pbc="F F F"
V        0.00000000       0.00000000       0.00000000       0.00000000       0.00000000       0.00649098
V        0.00000000       0.00000000       4.53030303       0.00000000       0.00000000      -0.00649098
2
Properties=species:S:1:pos:R:3:forces:R:3 energy=-7.51349684479946 pbc="F F F"
V        0.00000000       0.00000000       0.00000000       0.00000000       0.00000000       0.02368714
V        0.00000000       0.00000000       4.58909091       0.00000000       0.00000000      -0.02368714
2
Properties=species:S:1:pos:R:3:forces:R:3 energy=-7.51159262960211 pbc="F F F"
V        0.00000000       0.00000000       0.00000000       0.00000000       0.00000000       0.04095731
V        0.00000000       0.00000000       4.64787879       0.00000000       0.00000000      -0.04095731
2
Properties=species:S:1:pos:R:3:forces:R:3 energy=-7.508711538580894 pbc="F F F"
V        0.00000000       0.00000000       0.00000000       0.00000000       0.00000000       0.05670642
V        0.00000000       0.00000000       4.70666667       0.00000000       0.00000000      -0.05670642
2
Properties=species:S:1:pos:R:3:forces:R:3 energy=-7.504975420046396 pbc="F F F"
V        0.00000000       0.00000000       0.00000000       0.00000000       0.00000000       0.06992623
V        0.00000000       0.00000000       4.76545455       0.00000000       0.00000000      -0.06992623
2
Properties=species:S:1:pos:R:3:forces:R:3 energy=-7.50054980925791 pbc="F F F"
V        0.00000000       0.00000000       0.00000000       0.00000000       0.00000000       0.08009437
V        0.00000000       0.00000000       4.82424242       0.00000000       0.00000000      -0.08009437
2
Properties=species:S:1:pos:R:3:forces:R:3 energy=-7.4956213270076715 pbc="F F F"
V        0.00000000       0.00000000       0.00000000       0.00000000       0.00000000       0.08705699
V        0.00000000       0.00000000       4.88303030       0.00000000       0.00000000      -0.08705699
2
Properties=species:S:1:pos:R:3:forces:R:3 energy=-7.490374206894152 pbc="F F F"
V        0.00000000       0.00000000       0.00000000       0.00000000       0.00000000       0.09095579
V        0.00000000       0.00000000       4.94181818       0.00000000       0.00000000      -0.09095579
2
Properties=species:S:1:pos:R:3:forces:R:3 energy=-7.4849802278887605 pbc="F F F"
V        0.00000000       0.00000000       0.00000000       0.00000000       0.00000000       0.09214826
V        0.00000000       0.00000000       5.00060606       0.00000000       0.00000000      -0.09214826
2
Properties=species:S:1:pos:R:3:forces:R:3 energy=-7.479583048401713 pbc="F F F"
V        0.00000000       0.00000000       0.00000000       0.00000000       0.00000000       0.09113777
V        0.00000000       0.00000000       5.05939394       0.00000000       0.00000000      -0.09113777
2
Properties=species:S:1:pos:R:3:forces:R:3 energy=-7.474297049867092 pbc="F F F"
V        0.00000000       0.00000000       0.00000000       0.00000000       0.00000000       0.08847604
V        0.00000000       0.00000000       5.11818182       0.00000000       0.00000000      -0.08847604
2
Properties=species:S:1:pos:R:3:forces:R:3 energy=-7.469202701419802 pbc="F F F"
V        0.00000000       0.00000000       0.00000000       0.00000000       0.00000000       0.08467029
V        0.00000000       0.00000000       5.17696970       0.00000000       0.00000000      -0.08467029
2
Properties=species:S:1:pos:R:3:forces:R:3 energy=-7.464356172666461 pbc="F F F"
V        0.00000000       0.00000000       0.00000000       0.00000000       0.00000000       0.08011556
V        0.00000000       0.00000000       5.23575758       0.00000000       0.00000000      -0.08011556
2
Properties=species:S:1:pos:R:3:forces:R:3 energy=-7.459792595517777 pbc="F F F"
V        0.00000000       0.00000000       0.00000000       0.00000000       0.00000000       0.07507353
V        0.00000000       0.00000000       5.29454545       0.00000000       0.00000000      -0.07507353
2
Properties=species:S:1:pos:R:3:forces:R:3 energy=-7.455535806840152 pbc="F F F"
V        0.00000000       0.00000000       0.00000000       0.00000000       0.00000000       0.06969529
V        0.00000000       0.00000000       5.35333333       0.00000000       0.00000000      -0.06969529
2
Properties=species:S:1:pos:R:3:forces:R:3 energy=-7.451603132666375 pbc="F F F"
V        0.00000000       0.00000000       0.00000000       0.00000000       0.00000000       0.06407325
V        0.00000000       0.00000000       5.41212121       0.00000000       0.00000000      -0.06407325
2
Properties=species:S:1:pos:R:3:forces:R:3 energy=-7.448005906214467 pbc="F F F"
V        0.00000000       0.00000000       0.00000000       0.00000000       0.00000000       0.05828543
V        0.00000000       0.00000000       5.47090909       0.00000000       0.00000000      -0.05828543
2
Properties=species:S:1:pos:R:3:forces:R:3 energy=-7.4447515494665355 pbc="F F F"
V        0.00000000       0.00000000       0.00000000       0.00000000       0.00000000       0.05242553
V        0.00000000       0.00000000       5.52969697       0.00000000       0.00000000      -0.05242553
2
Properties=species:S:1:pos:R:3:forces:R:3 energy=-7.441840756495329 pbc="F F F"
V        0.00000000       0.00000000       0.00000000       0.00000000       0.00000000       0.04661073
V        0.00000000       0.00000000       5.58848485       0.00000000       0.00000000      -0.04661073
2
Properties=species:S:1:pos:R:3:forces:R:3 energy=-7.439268033657843 pbc="F F F"
V        0.00000000       0.00000000       0.00000000       0.00000000       0.00000000       0.04098137
V        0.00000000       0.00000000       5.64727273       0.00000000       0.00000000      -0.04098137
2
Properties=species:S:1:pos:R:3:forces:R:3 energy=-7.437016549421245 pbc="F F F"
V        0.00000000       0.00000000       0.00000000       0.00000000       0.00000000       0.03568286
V        0.00000000       0.00000000       5.70606061       0.00000000       0.00000000      -0.03568286
2
Properties=species:S:1:pos:R:3:forces:R:3 energy=-7.435062042510888 pbc="F F F"
V        0.00000000       0.00000000       0.00000000       0.00000000       0.00000000       0.03086043
V        0.00000000       0.00000000       5.76484848       0.00000000       0.00000000      -0.03086043
2
Properties=species:S:1:pos:R:3:forces:R:3 energy=-7.433375255197353 pbc="F F F"
V        0.00000000       0.00000000       0.00000000       0.00000000       0.00000000       0.02665727
V        0.00000000       0.00000000       5.82363636       0.00000000       0.00000000      -0.02665727
2
Properties=species:S:1:pos:R:3:forces:R:3 energy=-7.431914327660575 pbc="F F F"
V        0.00000000       0.00000000       0.00000000       0.00000000       0.00000000       0.02320163
V        0.00000000       0.00000000       5.88242424       0.00000000       0.00000000      -0.02320163
2
Properties=species:S:1:pos:R:3:forces:R:3 energy=-7.430630166743652 pbc="F F F"
V        0.00000000       0.00000000       0.00000000       0.00000000       0.00000000       0.02061743
V        0.00000000       0.00000000       5.94121212       0.00000000       0.00000000      -0.02061743
2
Properties=species:S:1:pos:R:3:forces:R:3 energy=-7.429470718480337 pbc="F F F"
V        0.00000000       0.00000000       0.00000000       0.00000000       0.00000000       0.01901128
V        0.00000000       0.00000000       6.00000000       0.00000000       0.00000000      -0.01901128
