2
Properties=species:S:1:pos:R:3:forces:R:3 energy=81874.5980783577 pbc="F F F"
W        0.00000000       0.00000000       0.00000000       0.00000000       0.00000000 -2065992.62500000
W        0.00000000       0.00000000       0.10000000       0.00000000       0.00000000 2065992.62500000
2
Properties=species:S:1:pos:R:3:forces:R:3 energy=22554.264093982703 pbc="F F F"
W        0.00000000       0.00000000       0.00000000       0.00000000       0.00000000 -425344.18750000
W        0.00000000       0.00000000       0.15959596       0.00000000       0.00000000  425344.18750000
2
Properties=species:S:1:pos:R:3:forces:R:3 energy=8134.2206369514515 pbc="F F F"
W        0.00000000       0.00000000       0.00000000       0.00000000       0.00000000 -127585.12500000
W        0.00000000       0.00000000       0.21919192       0.00000000       0.00000000  127585.12500000
2
Properties=species:S:1:pos:R:3:forces:R:3 energy=3392.6027170295765 pbc="F F F"
W        0.00000000       0.00000000       0.00000000       0.00000000       0.00000000  -46792.31250000
W        0.00000000       0.00000000       0.27878788       0.00000000       0.00000000   46792.31250000
2
Properties=species:S:1:pos:R:3:forces:R:3 energy=1555.9230295327445 pbc="F F F"
W        0.00000000       0.00000000       0.00000000       0.00000000       0.00000000  -19324.01171875
W        0.00000000       0.00000000       0.33838384       0.00000000       0.00000000   19324.01171875
2
Properties=species:S:1:pos:R:3:forces:R:3 energy=769.1821237710258 pbc="F F F"
W        0.00000000       0.00000000       0.00000000       0.00000000       0.00000000   -8643.83984375
W        0.00000000       0.00000000       0.39797980       0.00000000       0.00000000    8643.83984375
2
Properties=species:S:1:pos:R:3:forces:R:3 energy=407.55813085743955 pbc="F F F"
W        0.00000000       0.00000000       0.00000000       0.00000000       0.00000000   -4102.41406250
W        0.00000000       0.00000000       0.45757576       0.00000000       0.00000000    4102.41406250
2
Properties=species:S:1:pos:R:3:forces:R:3 energy=232.43062842553675 pbc="F F F"
W        0.00000000       0.00000000       0.00000000       0.00000000       0.00000000   -2031.68640137
W        0.00000000       0.00000000       0.51717172       0.00000000       0.00000000    2031.68640137
2
Properties=species:S:1:pos:R:3:forces:R:3 energy=144.69785561422742 pbc="F F F"
W        0.00000000       0.00000000       0.00000000       0.00000000       0.00000000   -1026.72753906
W        0.00000000       0.00000000       0.57676768       0.00000000       0.00000000    1026.72753906
2
Properties=species:S:1:pos:R:3:forces:R:3 energy=98.95846049796843 pbc="F F F"
W        0.00000000       0.00000000       0.00000000       0.00000000       0.00000000    -559.39721680
W        0.00000000       0.00000000       0.63636364       0.00000000       0.00000000     559.39721680
2
Properties=species:S:1:pos:R:3:forces:R:3 energy=74.18299362337262 pbc="F F F"
W        0.00000000       0.00000000       0.00000000       0.00000000       0.00000000    -301.31448364
W        0.00000000       0.00000000       0.69595960       0.00000000       0.00000000     301.31448364
2
Properties=species:S:1:pos:R:3:forces:R:3 energy=60.461943430613545 pbc="F F F"
W        0.00000000       0.00000000       0.00000000       0.00000000       0.00000000    -175.23344421
W        0.00000000       0.00000000       0.75555556       0.00000000       0.00000000     175.23344421
2
Properties=species:S:1:pos:R:3:forces:R:3 energy=51.87726106738425 pbc="F F F"
W        0.00000000       0.00000000       0.00000000       0.00000000       0.00000000    -121.03998566
W        0.00000000       0.00000000       0.81515152       0.00000000       0.00000000     121.03998566
2
Properties=species:S:1:pos:R:3:forces:R:3 energy=45.45172791842633 pbc="F F F"
W        0.00000000       0.00000000       0.00000000       0.00000000       0.00000000     -96.49768829
W        0.00000000       0.00000000       0.87474747       0.00000000       0.00000000      96.49768829
2
Properties=species:S:1:pos:R:3:forces:R:3 energy=40.40712287237564 pbc="F F F"
W        0.00000000       0.00000000       0.00000000       0.00000000       0.00000000     -71.30229187
W        0.00000000       0.00000000       0.93434343       0.00000000       0.00000000      71.30229187
2
Properties=species:S:1:pos:R:3:forces:R:3 energy=37.09573323438393 pbc="F F F"
W        0.00000000       0.00000000       0.00000000       0.00000000       0.00000000     -33.46087265
W        0.00000000       0.00000000       0.99393939       0.00000000       0.00000000      33.46087265
2
Properties=species:S:1:pos:R:3:forces:R:3 energy=31.285846688485183 pbc="F F F"
W        0.00000000       0.00000000       0.00000000       0.00000000       0.00000000     -70.22232056
W        0.00000000       0.00000000       1.05353535       0.00000000       0.00000000      70.22232056
2
Properties=species:S:1:pos:R:3:forces:R:3 energy=28.46843387792989 pbc="F F F"
W        0.00000000       0.00000000       0.00000000       0.00000000       0.00000000     -37.80080414
W        0.00000000       0.00000000       1.11313131       0.00000000       0.00000000      37.80080414
2
Properties=species:S:1:pos:R:3:forces:R:3 energy=25.285680045577912 pbc="F F F"
W        0.00000000       0.00000000       0.00000000       0.00000000       0.00000000     -74.51313782
W        0.00000000       0.00000000       1.17272727       0.00000000       0.00000000      74.51313782
2
Properties=species:S:1:pos:R:3:forces:R:3 energy=20.365339440868894 pbc="F F F"
W        0.00000000       0.00000000       0.00000000       0.00000000       0.00000000     -87.07890320
W        0.00000000       0.00000000       1.23232323       0.00000000       0.00000000      87.07890320
2
Properties=species:S:1:pos:R:3:forces:R:3 energy=14.792853707011284 pbc="F F F"
W        0.00000000       0.00000000       0.00000000       0.00000000       0.00000000    -102.20752716
W        0.00000000       0.00000000       1.29191919       0.00000000       0.00000000     102.20752716
2
Properties=species:S:1:pos:R:3:forces:R:3 energy=8.337984930706982 pbc="F F F"
W        0.00000000       0.00000000       0.00000000       0.00000000       0.00000000    -108.76110077
W        0.00000000       0.00000000       1.35151515       0.00000000       0.00000000     108.76110077
2
Properties=species:S:1:pos:R:3:forces:R:3 energy=2.381916809083477 pbc="F F F"
W        0.00000000       0.00000000       0.00000000       0.00000000       0.00000000     -88.33103180
W        0.00000000       0.00000000       1.41111111       0.00000000       0.00000000      88.33103180
2
Properties=species:S:1:pos:R:3:forces:R:3 energy=-2.067345442787408 pbc="F F F"
W        0.00000000       0.00000000       0.00000000       0.00000000       0.00000000     -61.73315048
W        0.00000000       0.00000000       1.47070707       0.00000000       0.00000000      61.73315048
2
Properties=species:S:1:pos:R:3:forces:R:3 energy=-5.190206402460413 pbc="F F F"
W        0.00000000       0.00000000       0.00000000       0.00000000       0.00000000     -45.01045990
W        0.00000000       0.00000000       1.53030303       0.00000000       0.00000000      45.01045990
2
Properties=species:S:1:pos:R:3:forces:R:3 energy=-7.568580867130805 pbc="F F F"
W        0.00000000       0.00000000       0.00000000       0.00000000       0.00000000     -35.12257004
W        0.00000000       0.00000000       1.58989899       0.00000000       0.00000000      35.12257004
2
Properties=species:S:1:pos:R:3:forces:R:3 energy=-9.379701474570023 pbc="F F F"
W        0.00000000       0.00000000       0.00000000       0.00000000       0.00000000     -25.73820496
W        0.00000000       0.00000000       1.64949495       0.00000000       0.00000000      25.73820496
2
Properties=species:S:1:pos:R:3:forces:R:3 energy=-10.67009690478486 pbc="F F F"
W        0.00000000       0.00000000       0.00000000       0.00000000       0.00000000     -17.96992302
W        0.00000000       0.00000000       1.70909091       0.00000000       0.00000000      17.96992302
2
Properties=species:S:1:pos:R:3:forces:R:3 energy=-11.56121557325071 pbc="F F F"
W        0.00000000       0.00000000       0.00000000       0.00000000       0.00000000     -12.09878254
W        0.00000000       0.00000000       1.76868687       0.00000000       0.00000000      12.09878254
2
Properties=species:S:1:pos:R:3:forces:R:3 energy=-12.109987857233008 pbc="F F F"
W        0.00000000       0.00000000       0.00000000       0.00000000       0.00000000      -6.19925308
W        0.00000000       0.00000000       1.82828283       0.00000000       0.00000000       6.19925308
2
Properties=species:S:1:pos:R:3:forces:R:3 energy=-12.29385070005217 pbc="F F F"
W        0.00000000       0.00000000       0.00000000       0.00000000       0.00000000      -0.06891704
W        0.00000000       0.00000000       1.88787879       0.00000000       0.00000000       0.06891704
2
Properties=species:S:1:pos:R:3:forces:R:3 energy=-12.151596692869717 pbc="F F F"
W        0.00000000       0.00000000       0.00000000       0.00000000       0.00000000       4.41665983
W        0.00000000       0.00000000       1.94747475       0.00000000       0.00000000      -4.41665983
2
Properties=species:S:1:pos:R:3:forces:R:3 energy=-11.824460363454541 pbc="F F F"
W        0.00000000       0.00000000       0.00000000       0.00000000       0.00000000       6.09473944
W        0.00000000       0.00000000       2.00707071       0.00000000       0.00000000      -6.09473944
2
Properties=species:S:1:pos:R:3:forces:R:3 energy=-11.471296608181627 pbc="F F F"
W        0.00000000       0.00000000       0.00000000       0.00000000       0.00000000       5.47337818
W        0.00000000       0.00000000       2.06666667       0.00000000       0.00000000      -5.47337818
2
Properties=species:S:1:pos:R:3:forces:R:3 energy=-11.192805808476917 pbc="F F F"
W        0.00000000       0.00000000       0.00000000       0.00000000       0.00000000       3.79939365
W        0.00000000       0.00000000       2.12626263       0.00000000       0.00000000      -3.79939365
2
Properties=species:S:1:pos:R:3:forces:R:3 energy=-11.018000561711046 pbc="F F F"
W        0.00000000       0.00000000       0.00000000       0.00000000       0.00000000       2.12901831
W        0.00000000       0.00000000       2.18585859       0.00000000       0.00000000      -2.12901831
2
Properties=species:S:1:pos:R:3:forces:R:3 energy=-10.927847771186775 pbc="F F F"
W        0.00000000       0.00000000       0.00000000       0.00000000       0.00000000       1.00720322
W        0.00000000       0.00000000       2.24545455       0.00000000       0.00000000      -1.00720322
2
Properties=species:S:1:pos:R:3:forces:R:3 energy=-10.884821938993015 pbc="F F F"
W        0.00000000       0.00000000       0.00000000       0.00000000       0.00000000       0.53804940
W        0.00000000       0.00000000       2.30505051       0.00000000       0.00000000      -0.53804940
2
Properties=species:S:1:pos:R:3:forces:R:3 energy=-10.853585704270023 pbc="F F F"
W        0.00000000       0.00000000       0.00000000       0.00000000       0.00000000       0.57656294
W        0.00000000       0.00000000       2.36464646       0.00000000       0.00000000      -0.57656294
2
Properties=species:S:1:pos:R:3:forces:R:3 energy=-10.810464283608797 pbc="F F F"
W        0.00000000       0.00000000       0.00000000       0.00000000       0.00000000       0.89972901
W        0.00000000       0.00000000       2.42424242       0.00000000       0.00000000      -0.89972901
2
Properties=species:S:1:pos:R:3:forces:R:3 energy=-10.74467790938782 pbc="F F F"
W        0.00000000       0.00000000       0.00000000       0.00000000       0.00000000       1.30913568
W        0.00000000       0.00000000       2.48383838       0.00000000       0.00000000      -1.30913568
2
Properties=species:S:1:pos:R:3:forces:R:3 energy=-10.65539795072036 pbc="F F F"
W        0.00000000       0.00000000       0.00000000       0.00000000       0.00000000       1.67216551
W        0.00000000       0.00000000       2.54343434       0.00000000       0.00000000      -1.67216551
2
Properties=species:S:1:pos:R:3:forces:R:3 energy=-10.547547913310328 pbc="F F F"
W        0.00000000       0.00000000       0.00000000       0.00000000       0.00000000       1.92758405
W        0.00000000       0.00000000       2.60303030       0.00000000       0.00000000      -1.92758405
2
Properties=species:S:1:pos:R:3:forces:R:3 energy=-10.4278552461499 pbc="F F F"
W        0.00000000       0.00000000       0.00000000       0.00000000       0.00000000       2.07288218
W        0.00000000       0.00000000       2.66262626       0.00000000       0.00000000      -2.07288218
2
Properties=species:S:1:pos:R:3:forces:R:3 energy=-10.302026881312162 pbc="F F F"
W        0.00000000       0.00000000       0.00000000       0.00000000       0.00000000       2.14040518
W        0.00000000       0.00000000       2.72222222       0.00000000       0.00000000      -2.14040518
2
Properties=species:S:1:pos:R:3:forces:R:3 energy=-10.173479582219354 pbc="F F F"
W        0.00000000       0.00000000       0.00000000       0.00000000       0.00000000       2.16998553
W        0.00000000       0.00000000       2.78181818       0.00000000       0.00000000      -2.16998553
2
Properties=species:S:1:pos:R:3:forces:R:3 energy=-10.043621470091615 pbc="F F F"
W        0.00000000       0.00000000       0.00000000       0.00000000       0.00000000       2.18655348
W        0.00000000       0.00000000       2.84141414       0.00000000       0.00000000      -2.18655348
2
Properties=species:S:1:pos:R:3:forces:R:3 energy=-9.913113657296723 pbc="F F F"
W        0.00000000       0.00000000       0.00000000       0.00000000       0.00000000       2.18965268
W        0.00000000       0.00000000       2.90101010       0.00000000       0.00000000      -2.18965268
2
Properties=species:S:1:pos:R:3:forces:R:3 energy=-9.783335010582586 pbc="F F F"
W        0.00000000       0.00000000       0.00000000       0.00000000       0.00000000       2.15717053
W        0.00000000       0.00000000       2.96060606       0.00000000       0.00000000      -2.15717053
2
Properties=species:S:1:pos:R:3:forces:R:3 energy=-9.657309634507486 pbc="F F F"
W        0.00000000       0.00000000       0.00000000       0.00000000       0.00000000       2.05888772
W        0.00000000       0.00000000       3.02020202       0.00000000       0.00000000      -2.05888772
2
Properties=species:S:1:pos:R:3:forces:R:3 energy=-9.539650806289812 pbc="F F F"
W        0.00000000       0.00000000       0.00000000       0.00000000       0.00000000       1.87497282
W        0.00000000       0.00000000       3.07979798       0.00000000       0.00000000      -1.87497282
2
Properties=species:S:1:pos:R:3:forces:R:3 energy=-9.435445049127535 pbc="F F F"
W        0.00000000       0.00000000       0.00000000       0.00000000       0.00000000       1.61055398
W        0.00000000       0.00000000       3.13939394       0.00000000       0.00000000      -1.61055398
2
Properties=species:S:1:pos:R:3:forces:R:3 energy=-9.348703272312827 pbc="F F F"
W        0.00000000       0.00000000       0.00000000       0.00000000       0.00000000       1.29530716
W        0.00000000       0.00000000       3.19898990       0.00000000       0.00000000      -1.29530716
2
Properties=species:S:1:pos:R:3:forces:R:3 energy=-9.281235662736348 pbc="F F F"
W        0.00000000       0.00000000       0.00000000       0.00000000       0.00000000       0.97080004
W        0.00000000       0.00000000       3.25858586       0.00000000       0.00000000      -0.97080004
2
Properties=species:S:1:pos:R:3:forces:R:3 energy=-9.232411853619316 pbc="F F F"
W        0.00000000       0.00000000       0.00000000       0.00000000       0.00000000       0.67491639
W        0.00000000       0.00000000       3.31818182       0.00000000       0.00000000      -0.67491639
2
Properties=species:S:1:pos:R:3:forces:R:3 energy=-9.199746569344303 pbc="F F F"
W        0.00000000       0.00000000       0.00000000       0.00000000       0.00000000       0.43108481
W        0.00000000       0.00000000       3.37777778       0.00000000       0.00000000      -0.43108481
2
Properties=species:S:1:pos:R:3:forces:R:3 energy=-9.179843641662954 pbc="F F F"
W        0.00000000       0.00000000       0.00000000       0.00000000       0.00000000       0.24672034
W        0.00000000       0.00000000       3.43737374       0.00000000       0.00000000      -0.24672034
2
Properties=species:S:1:pos:R:3:forces:R:3 energy=-9.169214089438729 pbc="F F F"
W        0.00000000       0.00000000       0.00000000       0.00000000       0.00000000       0.11886119
W        0.00000000       0.00000000       3.49696970       0.00000000       0.00000000      -0.11886119
2
Properties=species:S:1:pos:R:3:forces:R:3 energy=-9.16469739496522 pbc="F F F"
W        0.00000000       0.00000000       0.00000000       0.00000000       0.00000000       0.04019743
W        0.00000000       0.00000000       3.55656566       0.00000000       0.00000000      -0.04019743
2
Properties=species:S:1:pos:R:3:forces:R:3 energy=-9.16362942968154 pbc="F F F"
W        0.00000000       0.00000000       0.00000000       0.00000000       0.00000000       0.00138041
W        0.00000000       0.00000000       3.61616162       0.00000000       0.00000000      -0.00138041
2
Properties=species:S:1:pos:R:3:forces:R:3 energy=-9.16397444453448 pbc="F F F"
W        0.00000000       0.00000000       0.00000000       0.00000000       0.00000000      -0.00942182
W        0.00000000       0.00000000       3.67575758       0.00000000       0.00000000       0.00942182
2
Properties=species:S:1:pos:R:3:forces:R:3 energy=-9.164477762407252 pbc="F F F"
W        0.00000000       0.00000000       0.00000000       0.00000000       0.00000000      -0.00642484
W        0.00000000       0.00000000       3.73535354       0.00000000       0.00000000       0.00642484
2
Properties=species:S:1:pos:R:3:forces:R:3 energy=-9.164753579513041 pbc="F F F"
W        0.00000000       0.00000000       0.00000000       0.00000000       0.00000000      -0.00398966
W        0.00000000       0.00000000       3.79494949       0.00000000       0.00000000       0.00398966
2
Properties=species:S:1:pos:R:3:forces:R:3 energy=-9.165188675967283 pbc="F F F"
W        0.00000000       0.00000000       0.00000000       0.00000000       0.00000000      -0.01320238
W        0.00000000       0.00000000       3.85454545       0.00000000       0.00000000       0.01320238
2
Properties=species:S:1:pos:R:3:forces:R:3 energy=-9.166666832420606 pbc="F F F"
W        0.00000000       0.00000000       0.00000000       0.00000000       0.00000000      -0.03931021
W        0.00000000       0.00000000       3.91414141       0.00000000       0.00000000       0.03931021
2
Properties=species:S:1:pos:R:3:forces:R:3 energy=-9.170193161573735 pbc="F F F"
W        0.00000000       0.00000000       0.00000000       0.00000000       0.00000000      -0.08130383
W        0.00000000       0.00000000       3.97373737       0.00000000       0.00000000       0.08130383
2
Properties=species:S:1:pos:R:3:forces:R:3 energy=-9.176562204172793 pbc="F F F"
W        0.00000000       0.00000000       0.00000000       0.00000000       0.00000000      -0.13352877
W        0.00000000       0.00000000       4.03333333       0.00000000       0.00000000       0.13352877
2
Properties=species:S:1:pos:R:3:forces:R:3 energy=-9.18615963444358 pbc="F F F"
W        0.00000000       0.00000000       0.00000000       0.00000000       0.00000000      -0.18831477
W        0.00000000       0.00000000       4.09292929       0.00000000       0.00000000       0.18831477
2
Properties=species:S:1:pos:R:3:forces:R:3 energy=-9.198913667050952 pbc="F F F"
W        0.00000000       0.00000000       0.00000000       0.00000000       0.00000000      -0.23840085
W        0.00000000       0.00000000       4.15252525       0.00000000       0.00000000       0.23840085
2
Properties=species:S:1:pos:R:3:forces:R:3 energy=-9.214373252057113 pbc="F F F"
W        0.00000000       0.00000000       0.00000000       0.00000000       0.00000000      -0.27845228
W        0.00000000       0.00000000       4.21212121       0.00000000       0.00000000       0.27845228
2
Properties=species:S:1:pos:R:3:forces:R:3 energy=-9.231843541024062 pbc="F F F"
W        0.00000000       0.00000000       0.00000000       0.00000000       0.00000000      -0.30553454
W        0.00000000       0.00000000       4.27171717       0.00000000       0.00000000       0.30553454
2
Properties=species:S:1:pos:R:3:forces:R:3 energy=-9.250516594247912 pbc="F F F"
W        0.00000000       0.00000000       0.00000000       0.00000000       0.00000000      -0.31883866
W        0.00000000       0.00000000       4.33131313       0.00000000       0.00000000       0.31883866
2
Properties=species:S:1:pos:R:3:forces:R:3 energy=-9.269585812173395 pbc="F F F"
W        0.00000000       0.00000000       0.00000000       0.00000000       0.00000000      -0.31907013
W        0.00000000       0.00000000       4.39090909       0.00000000       0.00000000       0.31907013
2
Properties=species:S:1:pos:R:3:forces:R:3 energy=-9.288319349309292 pbc="F F F"
W        0.00000000       0.00000000       0.00000000       0.00000000       0.00000000      -0.30782735
W        0.00000000       0.00000000       4.45050505       0.00000000       0.00000000       0.30782735
2
Properties=species:S:1:pos:R:3:forces:R:3 energy=-9.306088813156947 pbc="F F F"
W        0.00000000       0.00000000       0.00000000       0.00000000       0.00000000      -0.28713870
W        0.00000000       0.00000000       4.51010101       0.00000000       0.00000000       0.28713870
2
Properties=species:S:1:pos:R:3:forces:R:3 energy=-9.32239871090465 pbc="F F F"
W        0.00000000       0.00000000       0.00000000       0.00000000       0.00000000      -0.25915620
W        0.00000000       0.00000000       4.56969697       0.00000000       0.00000000       0.25915620
2
Properties=species:S:1:pos:R:3:forces:R:3 energy=-9.336876060380472 pbc="F F F"
W        0.00000000       0.00000000       0.00000000       0.00000000       0.00000000      -0.22599871
W        0.00000000       0.00000000       4.62929293       0.00000000       0.00000000       0.22599871
2
Properties=species:S:1:pos:R:3:forces:R:3 energy=-9.34927216752019 pbc="F F F"
W        0.00000000       0.00000000       0.00000000       0.00000000       0.00000000      -0.18965290
W        0.00000000       0.00000000       4.68888889       0.00000000       0.00000000       0.18965290
2
Properties=species:S:1:pos:R:3:forces:R:3 energy=-9.359453146644915 pbc="F F F"
W        0.00000000       0.00000000       0.00000000       0.00000000       0.00000000      -0.15189096
W        0.00000000       0.00000000       4.74848485       0.00000000       0.00000000       0.15189096
2
Properties=species:S:1:pos:R:3:forces:R:3 energy=-9.36737970956677 pbc="F F F"
W        0.00000000       0.00000000       0.00000000       0.00000000       0.00000000      -0.11424935
W        0.00000000       0.00000000       4.80808081       0.00000000       0.00000000       0.11424935
2
Properties=species:S:1:pos:R:3:forces:R:3 energy=-9.373097758726423 pbc="F F F"
W        0.00000000       0.00000000       0.00000000       0.00000000       0.00000000      -0.07797848
W        0.00000000       0.00000000       4.86767677       0.00000000       0.00000000       0.07797848
2
Properties=species:S:1:pos:R:3:forces:R:3 energy=-9.376721027818261 pbc="F F F"
W        0.00000000       0.00000000       0.00000000       0.00000000       0.00000000      -0.04406178
W        0.00000000       0.00000000       4.92727273       0.00000000       0.00000000       0.04406178
2
Properties=species:S:1:pos:R:3:forces:R:3 energy=-9.37841103562279 pbc="F F F"
W        0.00000000       0.00000000       0.00000000       0.00000000       0.00000000      -0.01324213
W        0.00000000       0.00000000       4.98686869       0.00000000       0.00000000       0.01324213
2
Properties=species:S:1:pos:R:3:forces:R:3 energy=-9.378372273285557 pbc="F F F"
W        0.00000000       0.00000000       0.00000000       0.00000000       0.00000000       0.01392144
W        0.00000000       0.00000000       5.04646465       0.00000000       0.00000000      -0.01392144
2
Properties=species:S:1:pos:R:3:forces:R:3 energy=-9.376833007285754 pbc="F F F"
W        0.00000000       0.00000000       0.00000000       0.00000000       0.00000000       0.03701164
W        0.00000000       0.00000000       5.10606061       0.00000000       0.00000000      -0.03701164
2
Properties=species:S:1:pos:R:3:forces:R:3 energy=-9.374047177281383 pbc="F F F"
W        0.00000000       0.00000000       0.00000000       0.00000000       0.00000000       0.05570147
W        0.00000000       0.00000000       5.16565657       0.00000000       0.00000000      -0.05570147
2
Properties=species:S:1:pos:R:3:forces:R:3 energy=-9.370285746516148 pbc="F F F"
W        0.00000000       0.00000000       0.00000000       0.00000000       0.00000000       0.06976442
W        0.00000000       0.00000000       5.22525253       0.00000000       0.00000000      -0.06976442
2
Properties=species:S:1:pos:R:3:forces:R:3 energy=-9.365826127454678 pbc="F F F"
W        0.00000000       0.00000000       0.00000000       0.00000000       0.00000000       0.07911803
W        0.00000000       0.00000000       5.28484848       0.00000000       0.00000000      -0.07911803
2
Properties=species:S:1:pos:R:3:forces:R:3 energy=-9.360947411827045 pbc="F F F"
W        0.00000000       0.00000000       0.00000000       0.00000000       0.00000000       0.08385264
W        0.00000000       0.00000000       5.34444444       0.00000000       0.00000000      -0.08385264
2
Properties=species:S:1:pos:R:3:forces:R:3 energy=-9.355916933657133 pbc="F F F"
W        0.00000000       0.00000000       0.00000000       0.00000000       0.00000000       0.08426681
W        0.00000000       0.00000000       5.40404040       0.00000000       0.00000000      -0.08426681
2
Properties=species:S:1:pos:R:3:forces:R:3 energy=-9.350977901590827 pbc="F F F"
W        0.00000000       0.00000000       0.00000000       0.00000000       0.00000000       0.08088575
W        0.00000000       0.00000000       5.46363636       0.00000000       0.00000000      -0.08088575
2
Properties=species:S:1:pos:R:3:forces:R:3 energy=-9.346338835618637 pbc="F F F"
W        0.00000000       0.00000000       0.00000000       0.00000000       0.00000000       0.07441324
W        0.00000000       0.00000000       5.52323232       0.00000000       0.00000000      -0.07441324
2
Properties=species:S:1:pos:R:3:forces:R:3 energy=-9.342154536354958 pbc="F F F"
W        0.00000000       0.00000000       0.00000000       0.00000000       0.00000000       0.06570002
W        0.00000000       0.00000000       5.58282828       0.00000000       0.00000000      -0.06570002
2
Properties=species:S:1:pos:R:3:forces:R:3 energy=-9.33853459524701 pbc="F F F"
W        0.00000000       0.00000000       0.00000000       0.00000000       0.00000000       0.05566930
W        0.00000000       0.00000000       5.64242424       0.00000000       0.00000000      -0.05566930
2
Properties=species:S:1:pos:R:3:forces:R:3 energy=-9.335526306048791 pbc="F F F"
W        0.00000000       0.00000000       0.00000000       0.00000000       0.00000000       0.04523362
W        0.00000000       0.00000000       5.70202020       0.00000000       0.00000000      -0.04523362
2
Properties=species:S:1:pos:R:3:forces:R:3 energy=-9.333134669806961 pbc="F F F"
W        0.00000000       0.00000000       0.00000000       0.00000000       0.00000000       0.03524141
W        0.00000000       0.00000000       5.76161616       0.00000000       0.00000000      -0.03524141
2
Properties=species:S:1:pos:R:3:forces:R:3 energy=-9.33130332612625 pbc="F F F"
W        0.00000000       0.00000000       0.00000000       0.00000000       0.00000000       0.02644065
W        0.00000000       0.00000000       5.82121212       0.00000000       0.00000000      -0.02644065
2
Properties=species:S:1:pos:R:3:forces:R:3 energy=-9.329947985623503 pbc="F F F"
W        0.00000000       0.00000000       0.00000000       0.00000000       0.00000000       0.01945020
W        0.00000000       0.00000000       5.88080808       0.00000000       0.00000000      -0.01945020
2
Properties=species:S:1:pos:R:3:forces:R:3 energy=-9.32893829744439 pbc="F F F"
W        0.00000000       0.00000000       0.00000000       0.00000000       0.00000000       0.01476071
W        0.00000000       0.00000000       5.94040404       0.00000000       0.00000000      -0.01476071
2
Properties=species:S:1:pos:R:3:forces:R:3 energy=-9.328133190649993 pbc="F F F"
W        0.00000000       0.00000000       0.00000000       0.00000000       0.00000000       0.01275367
W        0.00000000       0.00000000       6.00000000       0.00000000       0.00000000      -0.01275367
