2
Properties=species:S:1:pos:R:3:forces:R:3 energy=15564.762140857702 pbc="F F F"
W        0.00000000       0.00000000       0.00000000       0.00000000       0.00000000 -273121.68750000
W        0.00000000       0.00000000       0.18000000       0.00000000       0.00000000  273121.68750000
2
Properties=species:S:1:pos:R:3:forces:R:3 energy=6024.8114572639515 pbc="F F F"
W        0.00000000       0.00000000       0.00000000       0.00000000       0.00000000  -90203.94531250
W        0.00000000       0.00000000       0.23878788       0.00000000       0.00000000   90203.94531250
2
Properties=species:S:1:pos:R:3:forces:R:3 energy=2629.8588205483693 pbc="F F F"
W        0.00000000       0.00000000       0.00000000       0.00000000       0.00000000  -35040.90625000
W        0.00000000       0.00000000       0.29757576       0.00000000       0.00000000   35040.90625000
2
Properties=species:S:1:pos:R:3:forces:R:3 energy=1248.681208243682 pbc="F F F"
W        0.00000000       0.00000000       0.00000000       0.00000000       0.00000000  -15049.70312500
W        0.00000000       0.00000000       0.35636364       0.00000000       0.00000000   15049.70312500
2
Properties=species:S:1:pos:R:3:forces:R:3 energy=636.0033518015373 pbc="F F F"
W        0.00000000       0.00000000       0.00000000       0.00000000       0.00000000   -6936.20117188
W        0.00000000       0.00000000       0.41515152       0.00000000       0.00000000    6936.20117188
2
Properties=species:S:1:pos:R:3:forces:R:3 energy=346.6256662578302 pbc="F F F"
W        0.00000000       0.00000000       0.00000000       0.00000000       0.00000000   -3370.79248047
W        0.00000000       0.00000000       0.47393939       0.00000000       0.00000000    3370.79248047
2
Properties=species:S:1:pos:R:3:forces:R:3 energy=203.4943033554624 pbc="F F F"
W        0.00000000       0.00000000       0.00000000       0.00000000       0.00000000   -1698.99047852
W        0.00000000       0.00000000       0.53272727       0.00000000       0.00000000    1698.99047852
2
Properties=species:S:1:pos:R:3:forces:R:3 energy=130.7791849662662 pbc="F F F"
W        0.00000000       0.00000000       0.00000000       0.00000000       0.00000000    -866.45904541
W        0.00000000       0.00000000       0.59151515       0.00000000       0.00000000     866.45904541
2
Properties=species:S:1:pos:R:3:forces:R:3 energy=91.71370953407722 pbc="F F F"
W        0.00000000       0.00000000       0.00000000       0.00000000       0.00000000    -482.36013794
W        0.00000000       0.00000000       0.65030303       0.00000000       0.00000000     482.36013794
2
Properties=species:S:1:pos:R:3:forces:R:3 energy=70.47213242998923 pbc="F F F"
W        0.00000000       0.00000000       0.00000000       0.00000000       0.00000000    -264.79507446
W        0.00000000       0.00000000       0.70909091       0.00000000       0.00000000     264.79507446
2
Properties=species:S:1:pos:R:3:forces:R:3 energy=58.40133553629641 pbc="F F F"
W        0.00000000       0.00000000       0.00000000       0.00000000       0.00000000    -159.65992737
W        0.00000000       0.00000000       0.76787879       0.00000000       0.00000000     159.65992737
2
Properties=species:S:1:pos:R:3:forces:R:3 energy=50.51887028145353 pbc="F F F"
W        0.00000000       0.00000000       0.00000000       0.00000000       0.00000000    -115.15241241
W        0.00000000       0.00000000       0.82666667       0.00000000       0.00000000     115.15241241
2
Properties=species:S:1:pos:R:3:forces:R:3 energy=44.43984135342486 pbc="F F F"
W        0.00000000       0.00000000       0.00000000       0.00000000       0.00000000     -92.58173370
W        0.00000000       0.00000000       0.88545455       0.00000000       0.00000000      92.58173370
2
Properties=species:S:1:pos:R:3:forces:R:3 energy=39.726474106678566 pbc="F F F"
W        0.00000000       0.00000000       0.00000000       0.00000000       0.00000000     -66.26884460
W        0.00000000       0.00000000       0.94424242       0.00000000       0.00000000      66.26884460
2
Properties=species:S:1:pos:R:3:forces:R:3 energy=36.744235634922596 pbc="F F F"
W        0.00000000       0.00000000       0.00000000       0.00000000       0.00000000     -81.43875885
W        0.00000000       0.00000000       1.00303030       0.00000000       0.00000000      81.43875885
2
Properties=species:S:1:pos:R:3:forces:R:3 energy=30.7440681873885 pbc="F F F"
W        0.00000000       0.00000000       0.00000000       0.00000000       0.00000000     -60.87877655
W        0.00000000       0.00000000       1.06181818       0.00000000       0.00000000      60.87877655
2
Properties=species:S:1:pos:R:3:forces:R:3 energy=28.18060360117442 pbc="F F F"
W        0.00000000       0.00000000       0.00000000       0.00000000       0.00000000     -39.44550323
W        0.00000000       0.00000000       1.12060606       0.00000000       0.00000000      39.44550323
2
Properties=species:S:1:pos:R:3:forces:R:3 energy=24.777135212401934 pbc="F F F"
W        0.00000000       0.00000000       0.00000000       0.00000000       0.00000000     -77.86660004
W        0.00000000       0.00000000       1.17939394       0.00000000       0.00000000      77.86660004
2
Properties=species:S:1:pos:R:3:forces:R:3 energy=19.852407718508736 pbc="F F F"
W        0.00000000       0.00000000       0.00000000       0.00000000       0.00000000     -88.05276489
W        0.00000000       0.00000000       1.23818182       0.00000000       0.00000000      88.05276489
2
Properties=species:S:1:pos:R:3:forces:R:3 energy=14.27233265394463 pbc="F F F"
W        0.00000000       0.00000000       0.00000000       0.00000000       0.00000000    -103.92546844
W        0.00000000       0.00000000       1.29696970       0.00000000       0.00000000     103.92546844
2
Properties=species:S:1:pos:R:3:forces:R:3 energy=7.878241551328364 pbc="F F F"
W        0.00000000       0.00000000       0.00000000       0.00000000       0.00000000    -107.95874023
W        0.00000000       0.00000000       1.35575758       0.00000000       0.00000000     107.95874023
2
Properties=species:S:1:pos:R:3:forces:R:3 energy=2.081247259355738 pbc="F F F"
W        0.00000000       0.00000000       0.00000000       0.00000000       0.00000000     -86.75930023
W        0.00000000       0.00000000       1.41454545       0.00000000       0.00000000      86.75930023
2
Properties=species:S:1:pos:R:3:forces:R:3 energy=-2.228175349650352 pbc="F F F"
W        0.00000000       0.00000000       0.00000000       0.00000000       0.00000000     -60.73732376
W        0.00000000       0.00000000       1.47333333       0.00000000       0.00000000      60.73732376
2
Properties=species:S:1:pos:R:3:forces:R:3 energy=-5.271728772177946 pbc="F F F"
W        0.00000000       0.00000000       0.00000000       0.00000000       0.00000000     -44.66057587
W        0.00000000       0.00000000       1.53212121       0.00000000       0.00000000      44.66057587
2
Properties=species:S:1:pos:R:3:forces:R:3 energy=-7.603978810213571 pbc="F F F"
W        0.00000000       0.00000000       0.00000000       0.00000000       0.00000000     -34.96249008
W        0.00000000       0.00000000       1.59090909       0.00000000       0.00000000      34.96249008
2
Properties=species:S:1:pos:R:3:forces:R:3 energy=-9.384892308035111 pbc="F F F"
W        0.00000000       0.00000000       0.00000000       0.00000000       0.00000000     -25.70802307
W        0.00000000       0.00000000       1.64969697       0.00000000       0.00000000      25.70802307
2
Properties=species:S:1:pos:R:3:forces:R:3 energy=-10.659185020277338 pbc="F F F"
W        0.00000000       0.00000000       0.00000000       0.00000000       0.00000000     -18.03682518
W        0.00000000       0.00000000       1.70848485       0.00000000       0.00000000      18.03682518
2
Properties=species:S:1:pos:R:3:forces:R:3 energy=-11.544014301661154 pbc="F F F"
W        0.00000000       0.00000000       0.00000000       0.00000000       0.00000000     -12.23138809
W        0.00000000       0.00000000       1.76727273       0.00000000       0.00000000      12.23138809
2
Properties=species:S:1:pos:R:3:forces:R:3 energy=-12.095955791116689 pbc="F F F"
W        0.00000000       0.00000000       0.00000000       0.00000000       0.00000000      -6.43159056
W        0.00000000       0.00000000       1.82606061       0.00000000       0.00000000       6.43159056
2
Properties=species:S:1:pos:R:3:forces:R:3 energy=-12.293205528209818 pbc="F F F"
W        0.00000000       0.00000000       0.00000000       0.00000000       0.00000000      -0.35809821
W        0.00000000       0.00000000       1.88484848       0.00000000       0.00000000       0.35809821
2
Properties=species:S:1:pos:R:3:forces:R:3 energy=-12.168156962110267 pbc="F F F"
W        0.00000000       0.00000000       0.00000000       0.00000000       0.00000000       4.20952845
W        0.00000000       0.00000000       1.94363636       0.00000000       0.00000000      -4.20952845
2
Properties=species:S:1:pos:R:3:forces:R:3 energy=-11.852706203666813 pbc="F F F"
W        0.00000000       0.00000000       0.00000000       0.00000000       0.00000000       6.06086063
W        0.00000000       0.00000000       2.00242424       0.00000000       0.00000000      -6.06086063
2
Properties=species:S:1:pos:R:3:forces:R:3 energy=-11.501483368864937 pbc="F F F"
W        0.00000000       0.00000000       0.00000000       0.00000000       0.00000000       5.59337234
W        0.00000000       0.00000000       2.06121212       0.00000000       0.00000000      -5.59337234
2
Properties=species:S:1:pos:R:3:forces:R:3 energy=-11.21719524951506 pbc="F F F"
W        0.00000000       0.00000000       0.00000000       0.00000000       0.00000000       3.98945403
W        0.00000000       0.00000000       2.12000000       0.00000000       0.00000000      -3.98945403
2
Properties=species:S:1:pos:R:3:forces:R:3 energy=-11.033668404035526 pbc="F F F"
W        0.00000000       0.00000000       0.00000000       0.00000000       0.00000000       2.30442595
W        0.00000000       0.00000000       2.17878788       0.00000000       0.00000000      -2.30442595
2
Properties=species:S:1:pos:R:3:forces:R:3 energy=-10.936207715090436 pbc="F F F"
W        0.00000000       0.00000000       0.00000000       0.00000000       0.00000000       1.11694515
W        0.00000000       0.00000000       2.23757576       0.00000000       0.00000000      -1.11694515
2
Properties=species:S:1:pos:R:3:forces:R:3 energy=-10.889625549327121 pbc="F F F"
W        0.00000000       0.00000000       0.00000000       0.00000000       0.00000000       0.56985408
W        0.00000000       0.00000000       2.29636364       0.00000000       0.00000000      -0.56985408
2
Properties=species:S:1:pos:R:3:forces:R:3 energy=-10.858907930337969 pbc="F F F"
W        0.00000000       0.00000000       0.00000000       0.00000000       0.00000000       0.54553431
W        0.00000000       0.00000000       2.35515152       0.00000000       0.00000000      -0.54553431
2
Properties=species:S:1:pos:R:3:forces:R:3 energy=-10.819389723773941 pbc="F F F"
W        0.00000000       0.00000000       0.00000000       0.00000000       0.00000000       0.83288276
W        0.00000000       0.00000000       2.41393939       0.00000000       0.00000000      -0.83288276
2
Properties=species:S:1:pos:R:3:forces:R:3 energy=-10.758805112832889 pbc="F F F"
W        0.00000000       0.00000000       0.00000000       0.00000000       0.00000000       1.23334670
W        0.00000000       0.00000000       2.47272727       0.00000000       0.00000000      -1.23334670
2
Properties=species:S:1:pos:R:3:forces:R:3 energy=-10.67494513924006 pbc="F F F"
W        0.00000000       0.00000000       0.00000000       0.00000000       0.00000000       1.60717499
W        0.00000000       0.00000000       2.53151515       0.00000000       0.00000000      -1.60717499
2
Properties=species:S:1:pos:R:3:forces:R:3 energy=-10.571802605729186 pbc="F F F"
W        0.00000000       0.00000000       0.00000000       0.00000000       0.00000000       1.88291323
W        0.00000000       0.00000000       2.59030303       0.00000000       0.00000000      -1.88291323
2
Properties=species:S:1:pos:R:3:forces:R:3 energy=-10.455750623221672 pbc="F F F"
W        0.00000000       0.00000000       0.00000000       0.00000000       0.00000000       2.04817820
W        0.00000000       0.00000000       2.64909091       0.00000000       0.00000000      -2.04817820
2
Properties=species:S:1:pos:R:3:forces:R:3 energy=-10.332648811002668 pbc="F F F"
W        0.00000000       0.00000000       0.00000000       0.00000000       0.00000000       2.12901449
W        0.00000000       0.00000000       2.70787879       0.00000000       0.00000000      -2.12901449
2
Properties=species:S:1:pos:R:3:forces:R:3 energy=-10.206317013772244 pbc="F F F"
W        0.00000000       0.00000000       0.00000000       0.00000000       0.00000000       2.16427755
W        0.00000000       0.00000000       2.76666667       0.00000000       0.00000000      -2.16427755
2
Properties=species:S:1:pos:R:3:forces:R:3 energy=-10.078490434661342 pbc="F F F"
W        0.00000000       0.00000000       0.00000000       0.00000000       0.00000000       2.18295097
W        0.00000000       0.00000000       2.82545455       0.00000000       0.00000000      -2.18295097
2
Properties=species:S:1:pos:R:3:forces:R:3 energy=-9.949843953014742 pbc="F F F"
W        0.00000000       0.00000000       0.00000000       0.00000000       0.00000000       2.19113207
W        0.00000000       0.00000000       2.88424242       0.00000000       0.00000000      -2.19113207
2
Properties=species:S:1:pos:R:3:forces:R:3 energy=-9.821388616391452 pbc="F F F"
W        0.00000000       0.00000000       0.00000000       0.00000000       0.00000000       2.17225981
W        0.00000000       0.00000000       2.94303030       0.00000000       0.00000000      -2.17225981
2
Properties=species:S:1:pos:R:3:forces:R:3 energy=-9.69553122313884 pbc="F F F"
W        0.00000000       0.00000000       0.00000000       0.00000000       0.00000000       2.09782386
W        0.00000000       0.00000000       3.00181818       0.00000000       0.00000000      -2.09782386
2
Properties=species:S:1:pos:R:3:forces:R:3 energy=-9.576309803323566 pbc="F F F"
W        0.00000000       0.00000000       0.00000000       0.00000000       0.00000000       1.94380391
W        0.00000000       0.00000000       3.06060606       0.00000000       0.00000000      -1.94380391
2
Properties=species:S:1:pos:R:3:forces:R:3 energy=-9.468630407571457 pbc="F F F"
W        0.00000000       0.00000000       0.00000000       0.00000000       0.00000000       1.70682871
W        0.00000000       0.00000000       3.11939394       0.00000000       0.00000000      -1.70682871
2
Properties=species:S:1:pos:R:3:forces:R:3 energy=-9.376838898222775 pbc="F F F"
W        0.00000000       0.00000000       0.00000000       0.00000000       0.00000000       1.40862381
W        0.00000000       0.00000000       3.17818182       0.00000000       0.00000000      -1.40862381
2
Properties=species:S:1:pos:R:3:forces:R:3 energy=-9.303470754336127 pbc="F F F"
W        0.00000000       0.00000000       0.00000000       0.00000000       0.00000000       1.08694577
W        0.00000000       0.00000000       3.23696970       0.00000000       0.00000000      -1.08694577
2
Properties=species:S:1:pos:R:3:forces:R:3 energy=-9.248724253722173 pbc="F F F"
W        0.00000000       0.00000000       0.00000000       0.00000000       0.00000000       0.78102547
W        0.00000000       0.00000000       3.29575758       0.00000000       0.00000000      -0.78102547
2
Properties=species:S:1:pos:R:3:forces:R:3 energy=-9.210766445068698 pbc="F F F"
W        0.00000000       0.00000000       0.00000000       0.00000000       0.00000000       0.51916456
W        0.00000000       0.00000000       3.35454545       0.00000000       0.00000000      -0.51916456
2
Properties=species:S:1:pos:R:3:forces:R:3 energy=-9.18656335932321 pbc="F F F"
W        0.00000000       0.00000000       0.00000000       0.00000000       0.00000000       0.31397432
W        0.00000000       0.00000000       3.41333333       0.00000000       0.00000000      -0.31397432
2
Properties=species:S:1:pos:R:3:forces:R:3 energy=-9.172731258321091 pbc="F F F"
W        0.00000000       0.00000000       0.00000000       0.00000000       0.00000000       0.16571997
W        0.00000000       0.00000000       3.47212121       0.00000000       0.00000000      -0.16571997
2
Properties=species:S:1:pos:R:3:forces:R:3 energy=-9.166076638564807 pbc="F F F"
W        0.00000000       0.00000000       0.00000000       0.00000000       0.00000000       0.06858454
W        0.00000000       0.00000000       3.53090909       0.00000000       0.00000000      -0.06858454
2
Properties=species:S:1:pos:R:3:forces:R:3 energy=-9.163824000674715 pbc="F F F"
W        0.00000000       0.00000000       0.00000000       0.00000000       0.00000000       0.01439021
W        0.00000000       0.00000000       3.58969697       0.00000000       0.00000000      -0.01439021
2
Properties=species:S:1:pos:R:3:forces:R:3 energy=-9.163741227387444 pbc="F F F"
W        0.00000000       0.00000000       0.00000000       0.00000000       0.00000000      -0.00708787
W        0.00000000       0.00000000       3.64848485       0.00000000       0.00000000       0.00708787
2
Properties=species:S:1:pos:R:3:forces:R:3 energy=-9.164265636460225 pbc="F F F"
W        0.00000000       0.00000000       0.00000000       0.00000000       0.00000000      -0.00860901
W        0.00000000       0.00000000       3.70727273       0.00000000       0.00000000       0.00860901
2
Properties=species:S:1:pos:R:3:forces:R:3 energy=-9.164639500626317 pbc="F F F"
W        0.00000000       0.00000000       0.00000000       0.00000000       0.00000000      -0.00428524
W        0.00000000       0.00000000       3.76606061       0.00000000       0.00000000       0.00428524
2
Properties=species:S:1:pos:R:3:forces:R:3 energy=-9.16490439524119 pbc="F F F"
W        0.00000000       0.00000000       0.00000000       0.00000000       0.00000000      -0.00667376
W        0.00000000       0.00000000       3.82484848       0.00000000       0.00000000       0.00667376
2
Properties=species:S:1:pos:R:3:forces:R:3 energy=-9.165717085286484 pbc="F F F"
W        0.00000000       0.00000000       0.00000000       0.00000000       0.00000000      -0.02376336
W        0.00000000       0.00000000       3.88363636       0.00000000       0.00000000       0.02376336
2
Properties=species:S:1:pos:R:3:forces:R:3 energy=-9.168028276509553 pbc="F F F"
W        0.00000000       0.00000000       0.00000000       0.00000000       0.00000000      -0.05752601
W        0.00000000       0.00000000       3.94242424       0.00000000       0.00000000       0.05752601
2
Properties=species:S:1:pos:R:3:forces:R:3 energy=-9.172742093503885 pbc="F F F"
W        0.00000000       0.00000000       0.00000000       0.00000000       0.00000000      -0.10455674
W        0.00000000       0.00000000       4.00121212       0.00000000       0.00000000       0.10455674
2
Properties=species:S:1:pos:R:3:forces:R:3 energy=-9.18045202279724 pbc="F F F"
W        0.00000000       0.00000000       0.00000000       0.00000000       0.00000000      -0.15819190
W        0.00000000       0.00000000       4.06000000       0.00000000       0.00000000       0.15819190
2
Properties=species:S:1:pos:R:3:forces:R:3 energy=-9.191324532906822 pbc="F F F"
W        0.00000000       0.00000000       0.00000000       0.00000000       0.00000000      -0.21099101
W        0.00000000       0.00000000       4.11878788       0.00000000       0.00000000       0.21099101
2
Properties=species:S:1:pos:R:3:forces:R:3 energy=-9.205118201678586 pbc="F F F"
W        0.00000000       0.00000000       0.00000000       0.00000000       0.00000000      -0.25668186
W        0.00000000       0.00000000       4.17757576       0.00000000       0.00000000       0.25668186
2
Properties=species:S:1:pos:R:3:forces:R:3 energy=-9.22128295226911 pbc="F F F"
W        0.00000000       0.00000000       0.00000000       0.00000000       0.00000000      -0.29112154
W        0.00000000       0.00000000       4.23636364       0.00000000       0.00000000       0.29112154
2
Properties=species:S:1:pos:R:3:forces:R:3 energy=-9.239088777003577 pbc="F F F"
W        0.00000000       0.00000000       0.00000000       0.00000000       0.00000000      -0.31239706
W        0.00000000       0.00000000       4.29515152       0.00000000       0.00000000       0.31239706
2
Properties=species:S:1:pos:R:3:forces:R:3 energy=-9.257751711084536 pbc="F F F"
W        0.00000000       0.00000000       0.00000000       0.00000000       0.00000000      -0.32039341
W        0.00000000       0.00000000       4.35393939       0.00000000       0.00000000       0.32039341
2
Properties=species:S:1:pos:R:3:forces:R:3 energy=-9.276518633578352 pbc="F F F"
W        0.00000000       0.00000000       0.00000000       0.00000000       0.00000000      -0.31618351
W        0.00000000       0.00000000       4.41272727       0.00000000       0.00000000       0.31618351
2
Properties=species:S:1:pos:R:3:forces:R:3 energy=-9.29472171238242 pbc="F F F"
W        0.00000000       0.00000000       0.00000000       0.00000000       0.00000000      -0.30150172
W        0.00000000       0.00000000       4.47151515       0.00000000       0.00000000       0.30150172
2
Properties=species:S:1:pos:R:3:forces:R:3 energy=-9.311803145904435 pbc="F F F"
W        0.00000000       0.00000000       0.00000000       0.00000000       0.00000000      -0.27836177
W        0.00000000       0.00000000       4.53030303       0.00000000       0.00000000       0.27836177
2
Properties=species:S:1:pos:R:3:forces:R:3 energy=-9.32732568515807 pbc="F F F"
W        0.00000000       0.00000000       0.00000000       0.00000000       0.00000000      -0.24883445
W        0.00000000       0.00000000       4.58909091       0.00000000       0.00000000       0.24883445
2
Properties=species:S:1:pos:R:3:forces:R:3 energy=-9.340973558926922 pbc="F F F"
W        0.00000000       0.00000000       0.00000000       0.00000000       0.00000000      -0.21491903
W        0.00000000       0.00000000       4.64787879       0.00000000       0.00000000       0.21491903
2
Properties=species:S:1:pos:R:3:forces:R:3 energy=-9.352544787349155 pbc="F F F"
W        0.00000000       0.00000000       0.00000000       0.00000000       0.00000000      -0.17846058
W        0.00000000       0.00000000       4.70666667       0.00000000       0.00000000       0.17846058
2
Properties=species:S:1:pos:R:3:forces:R:3 energy=-9.36193877148011 pbc="F F F"
W        0.00000000       0.00000000       0.00000000       0.00000000       0.00000000      -0.14110160
W        0.00000000       0.00000000       4.76545455       0.00000000       0.00000000       0.14110160
2
Properties=species:S:1:pos:R:3:forces:R:3 energy=-9.36914481118665 pbc="F F F"
W        0.00000000       0.00000000       0.00000000       0.00000000       0.00000000      -0.10422967
W        0.00000000       0.00000000       4.82424242       0.00000000       0.00000000       0.10422967
2
Properties=species:S:1:pos:R:3:forces:R:3 energy=-9.374225854669904 pbc="F F F"
W        0.00000000       0.00000000       0.00000000       0.00000000       0.00000000      -0.06898478
W        0.00000000       0.00000000       4.88303030       0.00000000       0.00000000       0.06898478
2
Properties=species:S:1:pos:R:3:forces:R:3 energy=-9.377304079308919 pbc="F F F"
W        0.00000000       0.00000000       0.00000000       0.00000000       0.00000000      -0.03623044
W        0.00000000       0.00000000       4.94181818       0.00000000       0.00000000       0.03623044
2
Properties=species:S:1:pos:R:3:forces:R:3 energy=-9.378547508542027 pbc="F F F"
W        0.00000000       0.00000000       0.00000000       0.00000000       0.00000000      -0.00663988
W        0.00000000       0.00000000       5.00060606       0.00000000       0.00000000       0.00663988
2
Properties=species:S:1:pos:R:3:forces:R:3 energy=-9.378156666762047 pbc="F F F"
W        0.00000000       0.00000000       0.00000000       0.00000000       0.00000000       0.01929348
W        0.00000000       0.00000000       5.05939394       0.00000000       0.00000000      -0.01929348
2
Properties=species:S:1:pos:R:3:forces:R:3 energy=-9.376358692543635 pbc="F F F"
W        0.00000000       0.00000000       0.00000000       0.00000000       0.00000000       0.04117896
W        0.00000000       0.00000000       5.11818182       0.00000000       0.00000000      -0.04117896
2
Properties=species:S:1:pos:R:3:forces:R:3 energy=-9.373400640748315 pbc="F F F"
W        0.00000000       0.00000000       0.00000000       0.00000000       0.00000000       0.05872963
W        0.00000000       0.00000000       5.17696970       0.00000000       0.00000000      -0.05872963
2
Properties=species:S:1:pos:R:3:forces:R:3 energy=-9.36954280680427 pbc="F F F"
W        0.00000000       0.00000000       0.00000000       0.00000000       0.00000000       0.07175303
W        0.00000000       0.00000000       5.23575758       0.00000000       0.00000000      -0.07175303
2
Properties=species:S:1:pos:R:3:forces:R:3 energy=-9.365053815782757 pbc="F F F"
W        0.00000000       0.00000000       0.00000000       0.00000000       0.00000000       0.08019634
W        0.00000000       0.00000000       5.29454545       0.00000000       0.00000000      -0.08019634
2
Properties=species:S:1:pos:R:3:forces:R:3 energy=-9.360201136340095 pbc="F F F"
W        0.00000000       0.00000000       0.00000000       0.00000000       0.00000000       0.08417597
W        0.00000000       0.00000000       5.35333333       0.00000000       0.00000000      -0.08417597
2
Properties=species:S:1:pos:R:3:forces:R:3 energy=-9.355238602172099 pbc="F F F"
W        0.00000000       0.00000000       0.00000000       0.00000000       0.00000000       0.08401656
W        0.00000000       0.00000000       5.41212121       0.00000000       0.00000000      -0.08401656
2
Properties=species:S:1:pos:R:3:forces:R:3 energy=-9.350393024143683 pbc="F F F"
W        0.00000000       0.00000000       0.00000000       0.00000000       0.00000000       0.08024245
W        0.00000000       0.00000000       5.47090909       0.00000000       0.00000000      -0.08024245
2
Properties=species:S:1:pos:R:3:forces:R:3 energy=-9.345860385095063 pbc="F F F"
W        0.00000000       0.00000000       0.00000000       0.00000000       0.00000000       0.07356063
W        0.00000000       0.00000000       5.52969697       0.00000000       0.00000000      -0.07356063
2
Properties=species:S:1:pos:R:3:forces:R:3 energy=-9.341785817432855 pbc="F F F"
W        0.00000000       0.00000000       0.00000000       0.00000000       0.00000000       0.06479076
W        0.00000000       0.00000000       5.58848485       0.00000000       0.00000000      -0.06479076
2
Properties=species:S:1:pos:R:3:forces:R:3 energy=-9.338267381397372 pbc="F F F"
W        0.00000000       0.00000000       0.00000000       0.00000000       0.00000000       0.05482477
W        0.00000000       0.00000000       5.64727273       0.00000000       0.00000000      -0.05482477
2
Properties=species:S:1:pos:R:3:forces:R:3 energy=-9.335346534655116 pbc="F F F"
W        0.00000000       0.00000000       0.00000000       0.00000000       0.00000000       0.04453359
W        0.00000000       0.00000000       5.70606061       0.00000000       0.00000000      -0.04453359
2
Properties=species:S:1:pos:R:3:forces:R:3 energy=-9.333018679737052 pbc="F F F"
W        0.00000000       0.00000000       0.00000000       0.00000000       0.00000000       0.03472628
W        0.00000000       0.00000000       5.76484848       0.00000000       0.00000000      -0.03472628
2
Properties=species:S:1:pos:R:3:forces:R:3 energy=-9.33123790706761 pbc="F F F"
W        0.00000000       0.00000000       0.00000000       0.00000000       0.00000000       0.02611841
W        0.00000000       0.00000000       5.82363636       0.00000000       0.00000000      -0.02611841
2
Properties=species:S:1:pos:R:3:forces:R:3 energy=-9.32991510345517 pbc="F F F"
W        0.00000000       0.00000000       0.00000000       0.00000000       0.00000000       0.01929073
W        0.00000000       0.00000000       5.88242424       0.00000000       0.00000000      -0.01929073
2
Properties=species:S:1:pos:R:3:forces:R:3 energy=-9.328926589013882 pbc="F F F"
W        0.00000000       0.00000000       0.00000000       0.00000000       0.00000000       0.01471209
W        0.00000000       0.00000000       5.94121212       0.00000000       0.00000000      -0.01471209
2
Properties=species:S:1:pos:R:3:forces:R:3 energy=-9.328133190649993 pbc="F F F"
W        0.00000000       0.00000000       0.00000000       0.00000000       0.00000000       0.01275367
W        0.00000000       0.00000000       6.00000000       0.00000000       0.00000000      -0.01275367
