2
Properties=species:S:1:pos:R:3:forces:R:3 energy=6488.733496074198 pbc="F F F"
Y        0.00000000       0.00000000       0.00000000       0.00000000       0.00000000 -104047.29687500
Y        0.00000000       0.00000000       0.18000000       0.00000000       0.00000000  104047.29687500
2
Properties=species:S:1:pos:R:3:forces:R:3 energy=2756.7864745898237 pbc="F F F"
Y        0.00000000       0.00000000       0.00000000       0.00000000       0.00000000  -36633.67578125
Y        0.00000000       0.00000000       0.23878788       0.00000000       0.00000000   36633.67578125
2
Properties=species:S:1:pos:R:3:forces:R:3 energy=1339.260717753886 pbc="F F F"
Y        0.00000000       0.00000000       0.00000000       0.00000000       0.00000000  -15202.93261719
Y        0.00000000       0.00000000       0.29757576       0.00000000       0.00000000   15202.93261719
2
Properties=species:S:1:pos:R:3:forces:R:3 energy=721.9126342704636 pbc="F F F"
Y        0.00000000       0.00000000       0.00000000       0.00000000       0.00000000   -6996.14550781
Y        0.00000000       0.00000000       0.35636364       0.00000000       0.00000000    6996.14550781
2
Properties=species:S:1:pos:R:3:forces:R:3 energy=428.2729247978074 pbc="F F F"
Y        0.00000000       0.00000000       0.00000000       0.00000000       0.00000000   -3456.85107422
Y        0.00000000       0.00000000       0.41515152       0.00000000       0.00000000    3456.85107422
2
Properties=species:S:1:pos:R:3:forces:R:3 energy=279.422003166948 pbc="F F F"
Y        0.00000000       0.00000000       0.00000000       0.00000000       0.00000000   -1806.40063477
Y        0.00000000       0.00000000       0.47393939       0.00000000       0.00000000    1806.40063477
2
Properties=species:S:1:pos:R:3:forces:R:3 energy=199.80202332755647 pbc="F F F"
Y        0.00000000       0.00000000       0.00000000       0.00000000       0.00000000    -994.65393066
Y        0.00000000       0.00000000       0.53272727       0.00000000       0.00000000     994.65393066
2
Properties=species:S:1:pos:R:3:forces:R:3 energy=154.80689090661 pbc="F F F"
Y        0.00000000       0.00000000       0.00000000       0.00000000       0.00000000    -581.52905273
Y        0.00000000       0.00000000       0.59151515       0.00000000       0.00000000     581.52905273
2
Properties=species:S:1:pos:R:3:forces:R:3 energy=127.55547951297122 pbc="F F F"
Y        0.00000000       0.00000000       0.00000000       0.00000000       0.00000000    -369.27682495
Y        0.00000000       0.00000000       0.65030303       0.00000000       0.00000000     369.27682495
2
Properties=species:S:1:pos:R:3:forces:R:3 energy=109.30924086783156 pbc="F F F"
Y        0.00000000       0.00000000       0.00000000       0.00000000       0.00000000    -264.62698364
Y        0.00000000       0.00000000       0.70909091       0.00000000       0.00000000     264.62698364
2
Properties=species:S:1:pos:R:3:forces:R:3 energy=95.24706139743654 pbc="F F F"
Y        0.00000000       0.00000000       0.00000000       0.00000000       0.00000000    -221.58067322
Y        0.00000000       0.00000000       0.76787879       0.00000000       0.00000000     221.58067322
2
Properties=species:S:1:pos:R:3:forces:R:3 energy=82.54036598651574 pbc="F F F"
Y        0.00000000       0.00000000       0.00000000       0.00000000       0.00000000    -215.32234192
Y        0.00000000       0.00000000       0.82666667       0.00000000       0.00000000     215.32234192
2
Properties=species:S:1:pos:R:3:forces:R:3 energy=69.53358365751808 pbc="F F F"
Y        0.00000000       0.00000000       0.00000000       0.00000000       0.00000000    -229.41827393
Y        0.00000000       0.00000000       0.88545455       0.00000000       0.00000000     229.41827393
2
Properties=species:S:1:pos:R:3:forces:R:3 energy=55.376380274641306 pbc="F F F"
Y        0.00000000       0.00000000       0.00000000       0.00000000       0.00000000    -253.60615540
Y        0.00000000       0.00000000       0.94424242       0.00000000       0.00000000     253.60615540
2
Properties=species:S:1:pos:R:3:forces:R:3 energy=39.90430425777127 pbc="F F F"
Y        0.00000000       0.00000000       0.00000000       0.00000000       0.00000000    -264.44992065
Y        0.00000000       0.00000000       1.00303030       0.00000000       0.00000000     264.44992065
2
Properties=species:S:1:pos:R:3:forces:R:3 energy=25.934984499059823 pbc="F F F"
Y        0.00000000       0.00000000       0.00000000       0.00000000       0.00000000    -198.49098206
Y        0.00000000       0.00000000       1.06181818       0.00000000       0.00000000     198.49098206
2
Properties=species:S:1:pos:R:3:forces:R:3 energy=16.465117502353156 pbc="F F F"
Y        0.00000000       0.00000000       0.00000000       0.00000000       0.00000000    -132.76033020
Y        0.00000000       0.00000000       1.12060606       0.00000000       0.00000000     132.76033020
2
Properties=species:S:1:pos:R:3:forces:R:3 energy=9.638314266285446 pbc="F F F"
Y        0.00000000       0.00000000       0.00000000       0.00000000       0.00000000    -101.07179260
Y        0.00000000       0.00000000       1.17939394       0.00000000       0.00000000     101.07179260
2
Properties=species:S:1:pos:R:3:forces:R:3 energy=4.59301498635425 pbc="F F F"
Y        0.00000000       0.00000000       0.00000000       0.00000000       0.00000000     -70.31387329
Y        0.00000000       0.00000000       1.23818182       0.00000000       0.00000000      70.31387329
2
Properties=species:S:1:pos:R:3:forces:R:3 energy=1.31319370586596 pbc="F F F"
Y        0.00000000       0.00000000       0.00000000       0.00000000       0.00000000     -42.47245026
Y        0.00000000       0.00000000       1.29696970       0.00000000       0.00000000      42.47245026
2
Properties=species:S:1:pos:R:3:forces:R:3 energy=-0.5838928767706846 pbc="F F F"
Y        0.00000000       0.00000000       0.00000000       0.00000000       0.00000000     -23.74036598
Y        0.00000000       0.00000000       1.35575758       0.00000000       0.00000000      23.74036598
2
Properties=species:S:1:pos:R:3:forces:R:3 energy=-1.6591455867753409 pbc="F F F"
Y        0.00000000       0.00000000       0.00000000       0.00000000       0.00000000     -14.14566994
Y        0.00000000       0.00000000       1.41454545       0.00000000       0.00000000      14.14566994
2
Properties=species:S:1:pos:R:3:forces:R:3 energy=-2.3639305215909565 pbc="F F F"
Y        0.00000000       0.00000000       0.00000000       0.00000000       0.00000000     -10.50853348
Y        0.00000000       0.00000000       1.47333333       0.00000000       0.00000000      10.50853348
2
Properties=species:S:1:pos:R:3:forces:R:3 energy=-2.941742567335016 pbc="F F F"
Y        0.00000000       0.00000000       0.00000000       0.00000000       0.00000000      -9.31780052
Y        0.00000000       0.00000000       1.53212121       0.00000000       0.00000000       9.31780052
2
Properties=species:S:1:pos:R:3:forces:R:3 energy=-3.461428268192095 pbc="F F F"
Y        0.00000000       0.00000000       0.00000000       0.00000000       0.00000000      -8.28026390
Y        0.00000000       0.00000000       1.59090909       0.00000000       0.00000000       8.28026390
2
Properties=species:S:1:pos:R:3:forces:R:3 energy=-3.9025729066137367 pbc="F F F"
Y        0.00000000       0.00000000       0.00000000       0.00000000       0.00000000      -6.63141012
Y        0.00000000       0.00000000       1.64969697       0.00000000       0.00000000       6.63141012
2
Properties=species:S:1:pos:R:3:forces:R:3 energy=-4.235270760240743 pbc="F F F"
Y        0.00000000       0.00000000       0.00000000       0.00000000       0.00000000      -4.68989515
Y        0.00000000       0.00000000       1.70848485       0.00000000       0.00000000       4.68989515
2
Properties=species:S:1:pos:R:3:forces:R:3 energy=-4.4590304713882585 pbc="F F F"
Y        0.00000000       0.00000000       0.00000000       0.00000000       0.00000000      -2.98900986
Y        0.00000000       0.00000000       1.76727273       0.00000000       0.00000000       2.98900986
2
Properties=species:S:1:pos:R:3:forces:R:3 energy=-4.5946214587580965 pbc="F F F"
Y        0.00000000       0.00000000       0.00000000       0.00000000       0.00000000      -1.68401361
Y        0.00000000       0.00000000       1.82606061       0.00000000       0.00000000       1.68401361
2
Properties=species:S:1:pos:R:3:forces:R:3 energy=-4.663570263424633 pbc="F F F"
Y        0.00000000       0.00000000       0.00000000       0.00000000       0.00000000      -0.72174489
Y        0.00000000       0.00000000       1.88484848       0.00000000       0.00000000       0.72174489
2
Properties=species:S:1:pos:R:3:forces:R:3 energy=-4.688372874418735 pbc="F F F"
Y        0.00000000       0.00000000       0.00000000       0.00000000       0.00000000      -0.21265155
Y        0.00000000       0.00000000       1.94363636       0.00000000       0.00000000       0.21265155
2
Properties=species:S:1:pos:R:3:forces:R:3 energy=-4.699340076258043 pbc="F F F"
Y        0.00000000       0.00000000       0.00000000       0.00000000       0.00000000      -0.24048778
Y        0.00000000       0.00000000       2.00242424       0.00000000       0.00000000       0.24048778
2
Properties=species:S:1:pos:R:3:forces:R:3 energy=-4.723328413407948 pbc="F F F"
Y        0.00000000       0.00000000       0.00000000       0.00000000       0.00000000      -0.60826057
Y        0.00000000       0.00000000       2.06121212       0.00000000       0.00000000       0.60826057
2
Properties=species:S:1:pos:R:3:forces:R:3 energy=-4.772403087406206 pbc="F F F"
Y        0.00000000       0.00000000       0.00000000       0.00000000       0.00000000      -1.05987024
Y        0.00000000       0.00000000       2.12000000       0.00000000       0.00000000       1.05987024
2
Properties=species:S:1:pos:R:3:forces:R:3 energy=-4.846832597250584 pbc="F F F"
Y        0.00000000       0.00000000       0.00000000       0.00000000       0.00000000      -1.45793188
Y        0.00000000       0.00000000       2.17878788       0.00000000       0.00000000       1.45793188
2
Properties=species:S:1:pos:R:3:forces:R:3 energy=-4.9419604380219 pbc="F F F"
Y        0.00000000       0.00000000       0.00000000       0.00000000       0.00000000      -1.76235998
Y        0.00000000       0.00000000       2.23757576       0.00000000       0.00000000       1.76235998
2
Properties=species:S:1:pos:R:3:forces:R:3 energy=-5.052272230403856 pbc="F F F"
Y        0.00000000       0.00000000       0.00000000       0.00000000       0.00000000      -1.97663641
Y        0.00000000       0.00000000       2.29636364       0.00000000       0.00000000       1.97663641
2
Properties=species:S:1:pos:R:3:forces:R:3 energy=-5.172873145932831 pbc="F F F"
Y        0.00000000       0.00000000       0.00000000       0.00000000       0.00000000      -2.11465025
Y        0.00000000       0.00000000       2.35515152       0.00000000       0.00000000       2.11465025
2
Properties=species:S:1:pos:R:3:forces:R:3 energy=-5.299609454459882 pbc="F F F"
Y        0.00000000       0.00000000       0.00000000       0.00000000       0.00000000      -2.18642473
Y        0.00000000       0.00000000       2.41393939       0.00000000       0.00000000       2.18642473
2
Properties=species:S:1:pos:R:3:forces:R:3 energy=-5.428725781268138 pbc="F F F"
Y        0.00000000       0.00000000       0.00000000       0.00000000       0.00000000      -2.19599223
Y        0.00000000       0.00000000       2.47272727       0.00000000       0.00000000       2.19599223
2
Properties=species:S:1:pos:R:3:forces:R:3 energy=-5.556618648626426 pbc="F F F"
Y        0.00000000       0.00000000       0.00000000       0.00000000       0.00000000      -2.14521790
Y        0.00000000       0.00000000       2.53151515       0.00000000       0.00000000       2.14521790
2
Properties=species:S:1:pos:R:3:forces:R:3 energy=-5.679862148968079 pbc="F F F"
Y        0.00000000       0.00000000       0.00000000       0.00000000       0.00000000      -2.03906131
Y        0.00000000       0.00000000       2.59030303       0.00000000       0.00000000       2.03906131
2
Properties=species:S:1:pos:R:3:forces:R:3 energy=-5.795490216489638 pbc="F F F"
Y        0.00000000       0.00000000       0.00000000       0.00000000       0.00000000      -1.88848281
Y        0.00000000       0.00000000       2.64909091       0.00000000       0.00000000       1.88848281
2
Properties=species:S:1:pos:R:3:forces:R:3 energy=-5.901327358741637 pbc="F F F"
Y        0.00000000       0.00000000       0.00000000       0.00000000       0.00000000      -1.70853543
Y        0.00000000       0.00000000       2.70787879       0.00000000       0.00000000       1.70853543
2
Properties=species:S:1:pos:R:3:forces:R:3 energy=-5.996068201079143 pbc="F F F"
Y        0.00000000       0.00000000       0.00000000       0.00000000       0.00000000      -1.51283991
Y        0.00000000       0.00000000       2.76666667       0.00000000       0.00000000       1.51283991
2
Properties=species:S:1:pos:R:3:forces:R:3 energy=-6.079043386303792 pbc="F F F"
Y        0.00000000       0.00000000       0.00000000       0.00000000       0.00000000      -1.30897450
Y        0.00000000       0.00000000       2.82545455       0.00000000       0.00000000       1.30897450
2
Properties=species:S:1:pos:R:3:forces:R:3 energy=-6.149839234026044 pbc="F F F"
Y        0.00000000       0.00000000       0.00000000       0.00000000       0.00000000      -1.09822392
Y        0.00000000       0.00000000       2.88424242       0.00000000       0.00000000       1.09822392
2
Properties=species:S:1:pos:R:3:forces:R:3 energy=-6.208005036694246 pbc="F F F"
Y        0.00000000       0.00000000       0.00000000       0.00000000       0.00000000      -0.87915063
Y        0.00000000       0.00000000       2.94303030       0.00000000       0.00000000       0.87915063
2
Properties=species:S:1:pos:R:3:forces:R:3 energy=-6.253039501446512 pbc="F F F"
Y        0.00000000       0.00000000       0.00000000       0.00000000       0.00000000      -0.65178823
Y        0.00000000       0.00000000       3.00181818       0.00000000       0.00000000       0.65178823
2
Properties=species:S:1:pos:R:3:forces:R:3 energy=-6.284541040211341 pbc="F F F"
Y        0.00000000       0.00000000       0.00000000       0.00000000       0.00000000      -0.41947362
Y        0.00000000       0.00000000       3.06060606       0.00000000       0.00000000       0.41947362
2
Properties=species:S:1:pos:R:3:forces:R:3 energy=-6.302367649924825 pbc="F F F"
Y        0.00000000       0.00000000       0.00000000       0.00000000       0.00000000      -0.18752018
Y        0.00000000       0.00000000       3.11939394       0.00000000       0.00000000       0.18752018
2
Properties=species:S:1:pos:R:3:forces:R:3 energy=-6.306687112521698 pbc="F F F"
Y        0.00000000       0.00000000       0.00000000       0.00000000       0.00000000       0.03948269
Y        0.00000000       0.00000000       3.17818182       0.00000000       0.00000000      -0.03948269
2
Properties=species:S:1:pos:R:3:forces:R:3 energy=-6.29787312782265 pbc="F F F"
Y        0.00000000       0.00000000       0.00000000       0.00000000       0.00000000       0.25900227
Y        0.00000000       0.00000000       3.23696970       0.00000000       0.00000000      -0.25900227
2
Properties=species:S:1:pos:R:3:forces:R:3 energy=-6.276407324744455 pbc="F F F"
Y        0.00000000       0.00000000       0.00000000       0.00000000       0.00000000       0.46968797
Y        0.00000000       0.00000000       3.29575758       0.00000000       0.00000000      -0.46968797
2
Properties=species:S:1:pos:R:3:forces:R:3 energy=-6.242856124994823 pbc="F F F"
Y        0.00000000       0.00000000       0.00000000       0.00000000       0.00000000       0.66983145
Y        0.00000000       0.00000000       3.35454545       0.00000000       0.00000000      -0.66983145
2
Properties=species:S:1:pos:R:3:forces:R:3 energy=-6.19789558773566 pbc="F F F"
Y        0.00000000       0.00000000       0.00000000       0.00000000       0.00000000       0.85753417
Y        0.00000000       0.00000000       3.41333333       0.00000000       0.00000000      -0.85753417
2
Properties=species:S:1:pos:R:3:forces:R:3 energy=-6.142288499036921 pbc="F F F"
Y        0.00000000       0.00000000       0.00000000       0.00000000       0.00000000       1.03208923
Y        0.00000000       0.00000000       3.47212121       0.00000000       0.00000000      -1.03208923
2
Properties=species:S:1:pos:R:3:forces:R:3 energy=-6.076818093800886 pbc="F F F"
Y        0.00000000       0.00000000       0.00000000       0.00000000       0.00000000       1.19266522
Y        0.00000000       0.00000000       3.53090909       0.00000000       0.00000000      -1.19266522
2
Properties=species:S:1:pos:R:3:forces:R:3 energy=-6.002445158444497 pbc="F F F"
Y        0.00000000       0.00000000       0.00000000       0.00000000       0.00000000       1.33334374
Y        0.00000000       0.00000000       3.58969697       0.00000000       0.00000000      -1.33334374
2
Properties=species:S:1:pos:R:3:forces:R:3 energy=-5.9206574117611845 pbc="F F F"
Y        0.00000000       0.00000000       0.00000000       0.00000000       0.00000000       1.44304240
Y        0.00000000       0.00000000       3.64848485       0.00000000       0.00000000      -1.44304240
2
Properties=species:S:1:pos:R:3:forces:R:3 energy=-5.833549287094489 pbc="F F F"
Y        0.00000000       0.00000000       0.00000000       0.00000000       0.00000000       1.51375401
Y        0.00000000       0.00000000       3.70727273       0.00000000       0.00000000      -1.51375401
2
Properties=species:S:1:pos:R:3:forces:R:3 energy=-5.743441182021073 pbc="F F F"
Y        0.00000000       0.00000000       0.00000000       0.00000000       0.00000000       1.54559004
Y        0.00000000       0.00000000       3.76606061       0.00000000       0.00000000      -1.54559004
2
Properties=species:S:1:pos:R:3:forces:R:3 energy=-5.652489600879949 pbc="F F F"
Y        0.00000000       0.00000000       0.00000000       0.00000000       0.00000000       1.54351723
Y        0.00000000       0.00000000       3.82484848       0.00000000       0.00000000      -1.54351723
2
Properties=species:S:1:pos:R:3:forces:R:3 energy=-5.562521089536009 pbc="F F F"
Y        0.00000000       0.00000000       0.00000000       0.00000000       0.00000000       1.51281428
Y        0.00000000       0.00000000       3.88363636       0.00000000       0.00000000      -1.51281428
2
Properties=species:S:1:pos:R:3:forces:R:3 energy=-5.475096719880381 pbc="F F F"
Y        0.00000000       0.00000000       0.00000000       0.00000000       0.00000000       1.45769227
Y        0.00000000       0.00000000       3.94242424       0.00000000       0.00000000      -1.45769227
2
Properties=species:S:1:pos:R:3:forces:R:3 energy=-5.39153563469011 pbc="F F F"
Y        0.00000000       0.00000000       0.00000000       0.00000000       0.00000000       1.38206375
Y        0.00000000       0.00000000       4.00121212       0.00000000       0.00000000      -1.38206375
2
Properties=species:S:1:pos:R:3:forces:R:3 energy=-5.312913520744882 pbc="F F F"
Y        0.00000000       0.00000000       0.00000000       0.00000000       0.00000000       1.29046965
Y        0.00000000       0.00000000       4.06000000       0.00000000       0.00000000      -1.29046965
2
Properties=species:S:1:pos:R:3:forces:R:3 energy=-5.240014284382694 pbc="F F F"
Y        0.00000000       0.00000000       0.00000000       0.00000000       0.00000000       1.18835890
Y        0.00000000       0.00000000       4.11878788       0.00000000       0.00000000      -1.18835890
2
Properties=species:S:1:pos:R:3:forces:R:3 energy=-5.173280938682039 pbc="F F F"
Y        0.00000000       0.00000000       0.00000000       0.00000000       0.00000000       1.08165741
Y        0.00000000       0.00000000       4.17757576       0.00000000       0.00000000      -1.08165741
2
Properties=species:S:1:pos:R:3:forces:R:3 energy=-5.112814459078858 pbc="F F F"
Y        0.00000000       0.00000000       0.00000000       0.00000000       0.00000000       0.97605735
Y        0.00000000       0.00000000       4.23636364       0.00000000       0.00000000      -0.97605735
2
Properties=species:S:1:pos:R:3:forces:R:3 energy=-5.058403049175369 pbc="F F F"
Y        0.00000000       0.00000000       0.00000000       0.00000000       0.00000000       0.87634623
Y        0.00000000       0.00000000       4.29515152       0.00000000       0.00000000      -0.87634623
2
Properties=species:S:1:pos:R:3:forces:R:3 energy=-5.009592525578125 pbc="F F F"
Y        0.00000000       0.00000000       0.00000000       0.00000000       0.00000000       0.78606212
Y        0.00000000       0.00000000       4.35393939       0.00000000       0.00000000      -0.78606212
2
Properties=species:S:1:pos:R:3:forces:R:3 energy=-4.965754079459629 pbc="F F F"
Y        0.00000000       0.00000000       0.00000000       0.00000000       0.00000000       0.70741713
Y        0.00000000       0.00000000       4.41272727       0.00000000       0.00000000      -0.70741713
2
Properties=species:S:1:pos:R:3:forces:R:3 energy=-4.926167429957551 pbc="F F F"
Y        0.00000000       0.00000000       0.00000000       0.00000000       0.00000000       0.64148223
Y        0.00000000       0.00000000       4.47151515       0.00000000       0.00000000      -0.64148223
2
Properties=species:S:1:pos:R:3:forces:R:3 energy=-4.890077732523302 pbc="F F F"
Y        0.00000000       0.00000000       0.00000000       0.00000000       0.00000000       0.58839232
Y        0.00000000       0.00000000       4.53030303       0.00000000       0.00000000      -0.58839232
2
Properties=species:S:1:pos:R:3:forces:R:3 energy=-4.856746480120726 pbc="F F F"
Y        0.00000000       0.00000000       0.00000000       0.00000000       0.00000000       0.54754651
Y        0.00000000       0.00000000       4.58909091       0.00000000       0.00000000      -0.54754651
2
Properties=species:S:1:pos:R:3:forces:R:3 energy=-4.825483126533995 pbc="F F F"
Y        0.00000000       0.00000000       0.00000000       0.00000000       0.00000000       0.51780117
Y        0.00000000       0.00000000       4.64787879       0.00000000       0.00000000      -0.51780117
2
Properties=species:S:1:pos:R:3:forces:R:3 energy=-4.795678038816686 pbc="F F F"
Y        0.00000000       0.00000000       0.00000000       0.00000000       0.00000000       0.49759898
Y        0.00000000       0.00000000       4.70666667       0.00000000       0.00000000      -0.49759898
2
Properties=species:S:1:pos:R:3:forces:R:3 energy=-4.766825176399116 pbc="F F F"
Y        0.00000000       0.00000000       0.00000000       0.00000000       0.00000000       0.48514473
Y        0.00000000       0.00000000       4.76545455       0.00000000       0.00000000      -0.48514473
2
Properties=species:S:1:pos:R:3:forces:R:3 energy=-4.738521835998723 pbc="F F F"
Y        0.00000000       0.00000000       0.00000000       0.00000000       0.00000000       0.47852647
Y        0.00000000       0.00000000       4.82424242       0.00000000       0.00000000      -0.47852647
2
Properties=species:S:1:pos:R:3:forces:R:3 energy=-4.710487096213785 pbc="F F F"
Y        0.00000000       0.00000000       0.00000000       0.00000000       0.00000000       0.47580487
Y        0.00000000       0.00000000       4.88303030       0.00000000       0.00000000      -0.47580487
2
Properties=species:S:1:pos:R:3:forces:R:3 energy=-4.682540728982499 pbc="F F F"
Y        0.00000000       0.00000000       0.00000000       0.00000000       0.00000000       0.47505021
Y        0.00000000       0.00000000       4.94181818       0.00000000       0.00000000      -0.47505021
2
Properties=species:S:1:pos:R:3:forces:R:3 energy=-4.654629419291039 pbc="F F F"
Y        0.00000000       0.00000000       0.00000000       0.00000000       0.00000000       0.47432652
Y        0.00000000       0.00000000       5.00060606       0.00000000       0.00000000      -0.47432652
2
Properties=species:S:1:pos:R:3:forces:R:3 energy=-4.626807666344651 pbc="F F F"
Y        0.00000000       0.00000000       0.00000000       0.00000000       0.00000000       0.47172025
Y        0.00000000       0.00000000       5.05939394       0.00000000       0.00000000      -0.47172025
2
Properties=species:S:1:pos:R:3:forces:R:3 energy=-4.599238547172643 pbc="F F F"
Y        0.00000000       0.00000000       0.00000000       0.00000000       0.00000000       0.46543682
Y        0.00000000       0.00000000       5.11818182       0.00000000       0.00000000      -0.46543682
2
Properties=species:S:1:pos:R:3:forces:R:3 energy=-4.572187429046303 pbc="F F F"
Y        0.00000000       0.00000000       0.00000000       0.00000000       0.00000000       0.45395637
Y        0.00000000       0.00000000       5.17696970       0.00000000       0.00000000      -0.45395637
2
Properties=species:S:1:pos:R:3:forces:R:3 energy=-4.545989996046727 pbc="F F F"
Y        0.00000000       0.00000000       0.00000000       0.00000000       0.00000000       0.43624046
Y        0.00000000       0.00000000       5.23575758       0.00000000       0.00000000      -0.43624046
2
Properties=species:S:1:pos:R:3:forces:R:3 energy=-4.521028560926207 pbc="F F F"
Y        0.00000000       0.00000000       0.00000000       0.00000000       0.00000000       0.41187352
Y        0.00000000       0.00000000       5.29454545       0.00000000       0.00000000      -0.41187352
2
Properties=species:S:1:pos:R:3:forces:R:3 energy=-4.497687419813397 pbc="F F F"
Y        0.00000000       0.00000000       0.00000000       0.00000000       0.00000000       0.38113031
Y        0.00000000       0.00000000       5.35333333       0.00000000       0.00000000      -0.38113031
2
Properties=species:S:1:pos:R:3:forces:R:3 energy=-4.476321127535104 pbc="F F F"
Y        0.00000000       0.00000000       0.00000000       0.00000000       0.00000000       0.34493411
Y        0.00000000       0.00000000       5.41212121       0.00000000       0.00000000      -0.34493411
2
Properties=species:S:1:pos:R:3:forces:R:3 energy=-4.457210482877912 pbc="F F F"
Y        0.00000000       0.00000000       0.00000000       0.00000000       0.00000000       0.30471322
Y        0.00000000       0.00000000       5.47090909       0.00000000       0.00000000      -0.30471322
2
Properties=species:S:1:pos:R:3:forces:R:3 energy=-4.440540072892237 pbc="F F F"
Y        0.00000000       0.00000000       0.00000000       0.00000000       0.00000000       0.26216072
Y        0.00000000       0.00000000       5.52969697       0.00000000       0.00000000      -0.26216072
2
Properties=species:S:1:pos:R:3:forces:R:3 energy=-4.426396264173385 pbc="F F F"
Y        0.00000000       0.00000000       0.00000000       0.00000000       0.00000000       0.21910049
Y        0.00000000       0.00000000       5.58848485       0.00000000       0.00000000      -0.21910049
2
Properties=species:S:1:pos:R:3:forces:R:3 energy=-4.41475342526912 pbc="F F F"
Y        0.00000000       0.00000000       0.00000000       0.00000000       0.00000000       0.17735751
Y        0.00000000       0.00000000       5.64727273       0.00000000       0.00000000      -0.17735751
2
Properties=species:S:1:pos:R:3:forces:R:3 energy=-4.405489427887043 pbc="F F F"
Y        0.00000000       0.00000000       0.00000000       0.00000000       0.00000000       0.13853237
Y        0.00000000       0.00000000       5.70606061       0.00000000       0.00000000      -0.13853237
2
Properties=species:S:1:pos:R:3:forces:R:3 energy=-4.39837330298146 pbc="F F F"
Y        0.00000000       0.00000000       0.00000000       0.00000000       0.00000000       0.10408504
Y        0.00000000       0.00000000       5.76484848       0.00000000       0.00000000      -0.10408504
2
Properties=species:S:1:pos:R:3:forces:R:3 energy=-4.393134963516603 pbc="F F F"
Y        0.00000000       0.00000000       0.00000000       0.00000000       0.00000000       0.07532699
Y        0.00000000       0.00000000       5.82363636       0.00000000       0.00000000      -0.07532699
2
Properties=species:S:1:pos:R:3:forces:R:3 energy=-4.389392446450244 pbc="F F F"
Y        0.00000000       0.00000000       0.00000000       0.00000000       0.00000000       0.05334080
Y        0.00000000       0.00000000       5.88242424       0.00000000       0.00000000      -0.05334080
2
Properties=species:S:1:pos:R:3:forces:R:3 energy=-4.386712200124057 pbc="F F F"
Y        0.00000000       0.00000000       0.00000000       0.00000000       0.00000000       0.03909066
Y        0.00000000       0.00000000       5.94121212       0.00000000       0.00000000      -0.03909066
2
Properties=species:S:1:pos:R:3:forces:R:3 energy=-4.384625760892877 pbc="F F F"
Y        0.00000000       0.00000000       0.00000000       0.00000000       0.00000000       0.03343363
Y        0.00000000       0.00000000       6.00000000       0.00000000       0.00000000      -0.03343363
