2
Properties=species:S:1:pos:R:3:forces:R:3 energy=14450.165493830382 pbc="F F F"
Yb       0.00000000       0.00000000       0.00000000       0.00000000       0.00000000 -251578.54687500
Yb       0.00000000       0.00000000       0.18000000       0.00000000       0.00000000  251578.54687500
2
Properties=species:S:1:pos:R:3:forces:R:3 energy=5641.055142267882 pbc="F F F"
Yb       0.00000000       0.00000000       0.00000000       0.00000000       0.00000000  -83593.69531250
Yb       0.00000000       0.00000000       0.23878788       0.00000000       0.00000000   83593.69531250
2
Properties=species:S:1:pos:R:3:forces:R:3 energy=2486.3070953928814 pbc="F F F"
Yb       0.00000000       0.00000000       0.00000000       0.00000000       0.00000000  -32687.12109375
Yb       0.00000000       0.00000000       0.29757576       0.00000000       0.00000000   32687.12109375
2
Properties=species:S:1:pos:R:3:forces:R:3 energy=1193.9518707898421 pbc="F F F"
Yb       0.00000000       0.00000000       0.00000000       0.00000000       0.00000000  -14141.57031250
Yb       0.00000000       0.00000000       0.35636364       0.00000000       0.00000000   14141.57031250
2
Properties=species:S:1:pos:R:3:forces:R:3 energy=616.0985382703109 pbc="F F F"
Yb       0.00000000       0.00000000       0.00000000       0.00000000       0.00000000   -6577.13037109
Yb       0.00000000       0.00000000       0.41515152       0.00000000       0.00000000    6577.13037109
2
Properties=species:S:1:pos:R:3:forces:R:3 energy=340.12325751492773 pbc="F F F"
Yb       0.00000000       0.00000000       0.00000000       0.00000000       0.00000000   -3243.38208008
Yb       0.00000000       0.00000000       0.47393939       0.00000000       0.00000000    3243.38208008
2
Properties=species:S:1:pos:R:3:forces:R:3 energy=200.85845650220838 pbc="F F F"
Yb       0.00000000       0.00000000       0.00000000       0.00000000       0.00000000   -1682.73901367
Yb       0.00000000       0.00000000       0.53272727       0.00000000       0.00000000    1682.73901367
2
Properties=species:S:1:pos:R:3:forces:R:3 energy=127.0983704743163 pbc="F F F"
Yb       0.00000000       0.00000000       0.00000000       0.00000000       0.00000000    -913.38714600
Yb       0.00000000       0.00000000       0.59151515       0.00000000       0.00000000     913.38714600
2
Properties=species:S:1:pos:R:3:forces:R:3 energy=86.30692001184188 pbc="F F F"
Yb       0.00000000       0.00000000       0.00000000       0.00000000       0.00000000    -516.39575195
Yb       0.00000000       0.00000000       0.65030303       0.00000000       0.00000000     516.39575195
2
Properties=species:S:1:pos:R:3:forces:R:3 energy=62.83441260472733 pbc="F F F"
Yb       0.00000000       0.00000000       0.00000000       0.00000000       0.00000000    -303.54794312
Yb       0.00000000       0.00000000       0.70909091       0.00000000       0.00000000     303.54794312
2
Properties=species:S:1:pos:R:3:forces:R:3 energy=48.76717866045536 pbc="F F F"
Yb       0.00000000       0.00000000       0.00000000       0.00000000       0.00000000    -186.50201416
Yb       0.00000000       0.00000000       0.76787879       0.00000000       0.00000000     186.50201416
2
Properties=species:S:1:pos:R:3:forces:R:3 energy=39.88707856226668 pbc="F F F"
Yb       0.00000000       0.00000000       0.00000000       0.00000000       0.00000000    -122.12693787
Yb       0.00000000       0.00000000       0.82666667       0.00000000       0.00000000     122.12693787
2
Properties=species:S:1:pos:R:3:forces:R:3 energy=33.81285621931696 pbc="F F F"
Yb       0.00000000       0.00000000       0.00000000       0.00000000       0.00000000     -88.43316650
Yb       0.00000000       0.00000000       0.88545455       0.00000000       0.00000000      88.43316650
2
Properties=species:S:1:pos:R:3:forces:R:3 energy=29.12753852392818 pbc="F F F"
Yb       0.00000000       0.00000000       0.00000000       0.00000000       0.00000000     -73.34645081
Yb       0.00000000       0.00000000       0.94424242       0.00000000       0.00000000      73.34645081
2
Properties=species:S:1:pos:R:3:forces:R:3 energy=24.976389185989202 pbc="F F F"
Yb       0.00000000       0.00000000       0.00000000       0.00000000       0.00000000     -69.16641235
Yb       0.00000000       0.00000000       1.00303030       0.00000000       0.00000000      69.16641235
2
Properties=species:S:1:pos:R:3:forces:R:3 energy=20.89816175303537 pbc="F F F"
Yb       0.00000000       0.00000000       0.00000000       0.00000000       0.00000000     -69.96974945
Yb       0.00000000       0.00000000       1.06181818       0.00000000       0.00000000      69.96974945
2
Properties=species:S:1:pos:R:3:forces:R:3 energy=16.747665051446674 pbc="F F F"
Yb       0.00000000       0.00000000       0.00000000       0.00000000       0.00000000     -70.91780090
Yb       0.00000000       0.00000000       1.12060606       0.00000000       0.00000000      70.91780090
2
Properties=species:S:1:pos:R:3:forces:R:3 energy=12.625818868090288 pbc="F F F"
Yb       0.00000000       0.00000000       0.00000000       0.00000000       0.00000000     -68.56993103
Yb       0.00000000       0.00000000       1.17939394       0.00000000       0.00000000      68.56993103
2
Properties=species:S:1:pos:R:3:forces:R:3 energy=8.781958548988484 pbc="F F F"
Yb       0.00000000       0.00000000       0.00000000       0.00000000       0.00000000     -61.36703491
Yb       0.00000000       0.00000000       1.23818182       0.00000000       0.00000000      61.36703491
2
Properties=species:S:1:pos:R:3:forces:R:3 energy=5.497528217549801 pbc="F F F"
Yb       0.00000000       0.00000000       0.00000000       0.00000000       0.00000000     -49.80922318
Yb       0.00000000       0.00000000       1.29696970       0.00000000       0.00000000      49.80922318
2
Properties=species:S:1:pos:R:3:forces:R:3 energy=2.956725620398481 pbc="F F F"
Yb       0.00000000       0.00000000       0.00000000       0.00000000       0.00000000     -36.69624329
Yb       0.00000000       0.00000000       1.35575758       0.00000000       0.00000000      36.69624329
2
Properties=species:S:1:pos:R:3:forces:R:3 energy=1.1449232703592143 pbc="F F F"
Yb       0.00000000       0.00000000       0.00000000       0.00000000       0.00000000     -25.41017914
Yb       0.00000000       0.00000000       1.41454545       0.00000000       0.00000000      25.41017914
2
Properties=species:S:1:pos:R:3:forces:R:3 energy=-0.08120797269434395 pbc="F F F"
Yb       0.00000000       0.00000000       0.00000000       0.00000000       0.00000000     -16.60774612
Yb       0.00000000       0.00000000       1.47333333       0.00000000       0.00000000      16.60774612
2
Properties=species:S:1:pos:R:3:forces:R:3 energy=-0.8256843497758376 pbc="F F F"
Yb       0.00000000       0.00000000       0.00000000       0.00000000       0.00000000      -8.75877476
Yb       0.00000000       0.00000000       1.53212121       0.00000000       0.00000000       8.75877476
2
Properties=species:S:1:pos:R:3:forces:R:3 energy=-1.1142414126908582 pbc="F F F"
Yb       0.00000000       0.00000000       0.00000000       0.00000000       0.00000000      -1.14367044
Yb       0.00000000       0.00000000       1.59090909       0.00000000       0.00000000       1.14367044
2
Properties=species:S:1:pos:R:3:forces:R:3 energy=-0.9848144004524009 pbc="F F F"
Yb       0.00000000       0.00000000       0.00000000       0.00000000       0.00000000       5.20288706
Yb       0.00000000       0.00000000       1.64969697       0.00000000       0.00000000      -5.20288706
2
Properties=species:S:1:pos:R:3:forces:R:3 energy=-0.5549708428960584 pbc="F F F"
Yb       0.00000000       0.00000000       0.00000000       0.00000000       0.00000000       8.91351795
Yb       0.00000000       0.00000000       1.70848485       0.00000000       0.00000000      -8.91351795
2
Properties=species:S:1:pos:R:3:forces:R:3 energy=0.004189333542283041 pbc="F F F"
Yb       0.00000000       0.00000000       0.00000000       0.00000000       0.00000000       9.65076351
Yb       0.00000000       0.00000000       1.76727273       0.00000000       0.00000000      -9.65076351
2
Properties=species:S:1:pos:R:3:forces:R:3 energy=0.5357095374956216 pbc="F F F"
Yb       0.00000000       0.00000000       0.00000000       0.00000000       0.00000000       8.15935326
Yb       0.00000000       0.00000000       1.82606061       0.00000000       0.00000000      -8.15935326
2
Properties=species:S:1:pos:R:3:forces:R:3 energy=0.9448728137131871 pbc="F F F"
Yb       0.00000000       0.00000000       0.00000000       0.00000000       0.00000000       5.71224594
Yb       0.00000000       0.00000000       1.88484848       0.00000000       0.00000000      -5.71224594
2
Properties=species:S:1:pos:R:3:forces:R:3 energy=1.2116338069846886 pbc="F F F"
Yb       0.00000000       0.00000000       0.00000000       0.00000000       0.00000000       3.45730448
Yb       0.00000000       0.00000000       1.94363636       0.00000000       0.00000000      -3.45730448
2
Properties=species:S:1:pos:R:3:forces:R:3 energy=1.3643459101400348 pbc="F F F"
Yb       0.00000000       0.00000000       0.00000000       0.00000000       0.00000000       1.84438729
Yb       0.00000000       0.00000000       2.00242424       0.00000000       0.00000000      -1.84438729
2
Properties=species:S:1:pos:R:3:forces:R:3 energy=1.4387879002644042 pbc="F F F"
Yb       0.00000000       0.00000000       0.00000000       0.00000000       0.00000000       0.75594211
Yb       0.00000000       0.00000000       2.06121212       0.00000000       0.00000000      -0.75594211
2
Properties=species:S:1:pos:R:3:forces:R:3 energy=1.459262972386727 pbc="F F F"
Yb       0.00000000       0.00000000       0.00000000       0.00000000       0.00000000      -0.02105373
Yb       0.00000000       0.00000000       2.12000000       0.00000000       0.00000000       0.02105373
2
Properties=species:S:1:pos:R:3:forces:R:3 energy=1.4397978732268708 pbc="F F F"
Yb       0.00000000       0.00000000       0.00000000       0.00000000       0.00000000      -0.61837971
Yb       0.00000000       0.00000000       2.17878788       0.00000000       0.00000000       0.61837971
2
Properties=species:S:1:pos:R:3:forces:R:3 energy=1.388683224238811 pbc="F F F"
Yb       0.00000000       0.00000000       0.00000000       0.00000000       0.00000000      -1.10627759
Yb       0.00000000       0.00000000       2.23757576       0.00000000       0.00000000       1.10627759
2
Properties=species:S:1:pos:R:3:forces:R:3 energy=1.3110821733261766 pbc="F F F"
Yb       0.00000000       0.00000000       0.00000000       0.00000000       0.00000000      -1.52431059
Yb       0.00000000       0.00000000       2.29636364       0.00000000       0.00000000       1.52431059
2
Properties=species:S:1:pos:R:3:forces:R:3 energy=1.2104198096222356 pbc="F F F"
Yb       0.00000000       0.00000000       0.00000000       0.00000000       0.00000000      -1.89292347
Yb       0.00000000       0.00000000       2.35515152       0.00000000       0.00000000       1.89292347
2
Properties=species:S:1:pos:R:3:forces:R:3 energy=1.089390419798107 pbc="F F F"
Yb       0.00000000       0.00000000       0.00000000       0.00000000       0.00000000      -2.21674681
Yb       0.00000000       0.00000000       2.41393939       0.00000000       0.00000000       2.21674681
2
Properties=species:S:1:pos:R:3:forces:R:3 energy=0.9508109073666551 pbc="F F F"
Yb       0.00000000       0.00000000       0.00000000       0.00000000       0.00000000      -2.48789525
Yb       0.00000000       0.00000000       2.47272727       0.00000000       0.00000000       2.48789525
2
Properties=species:S:1:pos:R:3:forces:R:3 energy=0.798184282322908 pbc="F F F"
Yb       0.00000000       0.00000000       0.00000000       0.00000000       0.00000000      -2.69215918
Yb       0.00000000       0.00000000       2.53151515       0.00000000       0.00000000       2.69215918
2
Properties=species:S:1:pos:R:3:forces:R:3 energy=0.6358420972381371 pbc="F F F"
Yb       0.00000000       0.00000000       0.00000000       0.00000000       0.00000000      -2.81695962
Yb       0.00000000       0.00000000       2.59030303       0.00000000       0.00000000       2.81695962
2
Properties=species:S:1:pos:R:3:forces:R:3 energy=0.46863765323370865 pbc="F F F"
Yb       0.00000000       0.00000000       0.00000000       0.00000000       0.00000000      -2.85746169
Yb       0.00000000       0.00000000       2.64909091       0.00000000       0.00000000       2.85746169
2
Properties=species:S:1:pos:R:3:forces:R:3 energy=0.3014455929376692 pbc="F F F"
Yb       0.00000000       0.00000000       0.00000000       0.00000000       0.00000000      -2.81788254
Yb       0.00000000       0.00000000       2.70787879       0.00000000       0.00000000       2.81788254
2
Properties=species:S:1:pos:R:3:forces:R:3 energy=0.1386923346332007 pbc="F F F"
Yb       0.00000000       0.00000000       0.00000000       0.00000000       0.00000000      -2.70846272
Yb       0.00000000       0.00000000       2.76666667       0.00000000       0.00000000       2.70846272
2
Properties=species:S:1:pos:R:3:forces:R:3 energy=-0.015870699842040523 pbc="F F F"
Yb       0.00000000       0.00000000       0.00000000       0.00000000       0.00000000      -2.54117441
Yb       0.00000000       0.00000000       2.82545455       0.00000000       0.00000000       2.54117441
2
Properties=species:S:1:pos:R:3:forces:R:3 energy=-0.15916941236694754 pbc="F F F"
Yb       0.00000000       0.00000000       0.00000000       0.00000000       0.00000000      -2.32693338
Yb       0.00000000       0.00000000       2.88424242       0.00000000       0.00000000       2.32693338
2
Properties=species:S:1:pos:R:3:forces:R:3 energy=-0.28872480757526187 pbc="F F F"
Yb       0.00000000       0.00000000       0.00000000       0.00000000       0.00000000      -2.07507086
Yb       0.00000000       0.00000000       2.94303030       0.00000000       0.00000000       2.07507086
2
Properties=species:S:1:pos:R:3:forces:R:3 energy=-0.40257619942040324 pbc="F F F"
Yb       0.00000000       0.00000000       0.00000000       0.00000000       0.00000000      -1.79406881
Yb       0.00000000       0.00000000       3.00181818       0.00000000       0.00000000       1.79406881
2
Properties=species:S:1:pos:R:3:forces:R:3 energy=-0.4992619726084163 pbc="F F F"
Yb       0.00000000       0.00000000       0.00000000       0.00000000       0.00000000      -1.49259591
Yb       0.00000000       0.00000000       3.06060606       0.00000000       0.00000000       1.49259591
2
Properties=species:S:1:pos:R:3:forces:R:3 energy=-0.5778552746308281 pbc="F F F"
Yb       0.00000000       0.00000000       0.00000000       0.00000000       0.00000000      -1.18026578
Yb       0.00000000       0.00000000       3.11939394       0.00000000       0.00000000       1.18026578
2
Properties=species:S:1:pos:R:3:forces:R:3 energy=-0.6380316122455416 pbc="F F F"
Yb       0.00000000       0.00000000       0.00000000       0.00000000       0.00000000      -0.86790496
Yb       0.00000000       0.00000000       3.17818182       0.00000000       0.00000000       0.86790496
2
Properties=species:S:1:pos:R:3:forces:R:3 energy=-0.6801313250021312 pbc="F F F"
Yb       0.00000000       0.00000000       0.00000000       0.00000000       0.00000000      -0.56734270
Yb       0.00000000       0.00000000       3.23696970       0.00000000       0.00000000       0.56734270
2
Properties=species:S:1:pos:R:3:forces:R:3 energy=-0.7052038639893135 pbc="F F F"
Yb       0.00000000       0.00000000       0.00000000       0.00000000       0.00000000      -0.29056513
Yb       0.00000000       0.00000000       3.29575758       0.00000000       0.00000000       0.29056513
2
Properties=species:S:1:pos:R:3:forces:R:3 energy=-0.7149763236263574 pbc="F F F"
Yb       0.00000000       0.00000000       0.00000000       0.00000000       0.00000000      -0.04849322
Yb       0.00000000       0.00000000       3.35454545       0.00000000       0.00000000       0.04849322
2
Properties=species:S:1:pos:R:3:forces:R:3 energy=-0.7117522299324045 pbc="F F F"
Yb       0.00000000       0.00000000       0.00000000       0.00000000       0.00000000       0.15049160
Yb       0.00000000       0.00000000       3.41333333       0.00000000       0.00000000      -0.15049160
2
Properties=species:S:1:pos:R:3:forces:R:3 energy=-0.698219225432154 pbc="F F F"
Yb       0.00000000       0.00000000       0.00000000       0.00000000       0.00000000       0.30183104
Yb       0.00000000       0.00000000       3.47212121       0.00000000       0.00000000      -0.30183104
2
Properties=species:S:1:pos:R:3:forces:R:3 energy=-0.6772007029367281 pbc="F F F"
Yb       0.00000000       0.00000000       0.00000000       0.00000000       0.00000000       0.40552866
Yb       0.00000000       0.00000000       3.53090909       0.00000000       0.00000000      -0.40552866
2
Properties=species:S:1:pos:R:3:forces:R:3 energy=-0.6513885446521436 pbc="F F F"
Yb       0.00000000       0.00000000       0.00000000       0.00000000       0.00000000       0.46595639
Yb       0.00000000       0.00000000       3.58969697       0.00000000       0.00000000      -0.46595639
2
Properties=species:S:1:pos:R:3:forces:R:3 energy=-0.6231154526111544 pbc="F F F"
Yb       0.00000000       0.00000000       0.00000000       0.00000000       0.00000000       0.49071726
Yb       0.00000000       0.00000000       3.64848485       0.00000000       0.00000000      -0.49071726
2
Properties=species:S:1:pos:R:3:forces:R:3 energy=-0.5942131119174126 pbc="F F F"
Yb       0.00000000       0.00000000       0.00000000       0.00000000       0.00000000       0.48889884
Yb       0.00000000       0.00000000       3.70727273       0.00000000       0.00000000      -0.48889884
2
Properties=species:S:1:pos:R:3:forces:R:3 energy=-0.5659791608527721 pbc="F F F"
Yb       0.00000000       0.00000000       0.00000000       0.00000000       0.00000000       0.46933675
Yb       0.00000000       0.00000000       3.76606061       0.00000000       0.00000000      -0.46933675
2
Properties=species:S:1:pos:R:3:forces:R:3 energy=-0.5392316967410901 pbc="F F F"
Yb       0.00000000       0.00000000       0.00000000       0.00000000       0.00000000       0.43944010
Yb       0.00000000       0.00000000       3.82484848       0.00000000       0.00000000      -0.43944010
2
Properties=species:S:1:pos:R:3:forces:R:3 energy=-0.5144044443910476 pbc="F F F"
Yb       0.00000000       0.00000000       0.00000000       0.00000000       0.00000000       0.40476021
Yb       0.00000000       0.00000000       3.88363636       0.00000000       0.00000000      -0.40476021
2
Properties=species:S:1:pos:R:3:forces:R:3 energy=-0.4916589026953005 pbc="F F F"
Yb       0.00000000       0.00000000       0.00000000       0.00000000       0.00000000       0.36915228
Yb       0.00000000       0.00000000       3.94242424       0.00000000       0.00000000      -0.36915228
2
Properties=species:S:1:pos:R:3:forces:R:3 energy=-0.4709689928534969 pbc="F F F"
Yb       0.00000000       0.00000000       0.00000000       0.00000000       0.00000000       0.33517250
Yb       0.00000000       0.00000000       4.00121212       0.00000000       0.00000000      -0.33517250
2
Properties=species:S:1:pos:R:3:forces:R:3 energy=-0.4521867990036722 pbc="F F F"
Yb       0.00000000       0.00000000       0.00000000       0.00000000       0.00000000       0.30443320
Yb       0.00000000       0.00000000       4.06000000       0.00000000       0.00000000      -0.30443320
2
Properties=species:S:1:pos:R:3:forces:R:3 energy=-0.4350932619726298 pbc="F F F"
Yb       0.00000000       0.00000000       0.00000000       0.00000000       0.00000000       0.27783853
Yb       0.00000000       0.00000000       4.11878788       0.00000000       0.00000000      -0.27783853
2
Properties=species:S:1:pos:R:3:forces:R:3 energy=-0.4194318939141056 pbc="F F F"
Yb       0.00000000       0.00000000       0.00000000       0.00000000       0.00000000       0.25570849
Yb       0.00000000       0.00000000       4.17757576       0.00000000       0.00000000      -0.25570849
2
Properties=species:S:1:pos:R:3:forces:R:3 energy=-0.4049430591910568 pbc="F F F"
Yb       0.00000000       0.00000000       0.00000000       0.00000000       0.00000000       0.23789959
Yb       0.00000000       0.00000000       4.23636364       0.00000000       0.00000000      -0.23789959
2
Properties=species:S:1:pos:R:3:forces:R:3 energy=-0.39138478460823206 pbc="F F F"
Yb       0.00000000       0.00000000       0.00000000       0.00000000       0.00000000       0.22394681
Yb       0.00000000       0.00000000       4.29515152       0.00000000       0.00000000      -0.22394681
2
Properties=species:S:1:pos:R:3:forces:R:3 energy=-0.37854922671721636 pbc="F F F"
Yb       0.00000000       0.00000000       0.00000000       0.00000000       0.00000000       0.21322106
Yb       0.00000000       0.00000000       4.35393939       0.00000000       0.00000000      -0.21322106
2
Properties=species:S:1:pos:R:3:forces:R:3 energy=-0.3662652221448675 pbc="F F F"
Yb       0.00000000       0.00000000       0.00000000       0.00000000       0.00000000       0.20506415
Yb       0.00000000       0.00000000       4.41272727       0.00000000       0.00000000      -0.20506415
2
Properties=species:S:1:pos:R:3:forces:R:3 energy=-0.35439999641313513 pbc="F F F"
Yb       0.00000000       0.00000000       0.00000000       0.00000000       0.00000000       0.19887602
Yb       0.00000000       0.00000000       4.47151515       0.00000000       0.00000000      -0.19887602
2
Properties=species:S:1:pos:R:3:forces:R:3 energy=-0.3428536009922162 pbc="F F F"
Yb       0.00000000       0.00000000       0.00000000       0.00000000       0.00000000       0.19414043
Yb       0.00000000       0.00000000       4.53030303       0.00000000       0.00000000      -0.19414043
2
Properties=species:S:1:pos:R:3:forces:R:3 energy=-0.3315544600832308 pbc="F F F"
Yb       0.00000000       0.00000000       0.00000000       0.00000000       0.00000000       0.19039421
Yb       0.00000000       0.00000000       4.58909091       0.00000000       0.00000000      -0.19039421
2
Properties=species:S:1:pos:R:3:forces:R:3 energy=-0.3204574372190655 pbc="F F F"
Yb       0.00000000       0.00000000       0.00000000       0.00000000       0.00000000       0.18719319
Yb       0.00000000       0.00000000       4.64787879       0.00000000       0.00000000      -0.18719319
2
Properties=species:S:1:pos:R:3:forces:R:3 energy=-0.3095431688178908 pbc="F F F"
Yb       0.00000000       0.00000000       0.00000000       0.00000000       0.00000000       0.18408196
Yb       0.00000000       0.00000000       4.70666667       0.00000000       0.00000000      -0.18408196
2
Properties=species:S:1:pos:R:3:forces:R:3 energy=-0.29882078030027026 pbc="F F F"
Yb       0.00000000       0.00000000       0.00000000       0.00000000       0.00000000       0.18061347
Yb       0.00000000       0.00000000       4.76545455       0.00000000       0.00000000      -0.18061347
2
Properties=species:S:1:pos:R:3:forces:R:3 energy=-0.28832196140867633 pbc="F F F"
Yb       0.00000000       0.00000000       0.00000000       0.00000000       0.00000000       0.17639937
Yb       0.00000000       0.00000000       4.82424242       0.00000000       0.00000000      -0.17639937
2
Properties=species:S:1:pos:R:3:forces:R:3 energy=-0.2781008514579458 pbc="F F F"
Yb       0.00000000       0.00000000       0.00000000       0.00000000       0.00000000       0.17117813
Yb       0.00000000       0.00000000       4.88303030       0.00000000       0.00000000      -0.17117813
2
Properties=species:S:1:pos:R:3:forces:R:3 energy=-0.26821732692203815 pbc="F F F"
Yb       0.00000000       0.00000000       0.00000000       0.00000000       0.00000000       0.16486321
Yb       0.00000000       0.00000000       4.94181818       0.00000000       0.00000000      -0.16486321
2
Properties=species:S:1:pos:R:3:forces:R:3 energy=-0.25873548785123823 pbc="F F F"
Yb       0.00000000       0.00000000       0.00000000       0.00000000       0.00000000       0.15755965
Yb       0.00000000       0.00000000       5.00060606       0.00000000       0.00000000      -0.15755965
2
Properties=species:S:1:pos:R:3:forces:R:3 energy=-0.24970624439639108 pbc="F F F"
Yb       0.00000000       0.00000000       0.00000000       0.00000000       0.00000000       0.14952512
Yb       0.00000000       0.00000000       5.05939394       0.00000000       0.00000000      -0.14952512
2
Properties=species:S:1:pos:R:3:forces:R:3 energy=-0.2411624220784079 pbc="F F F"
Yb       0.00000000       0.00000000       0.00000000       0.00000000       0.00000000       0.14110252
Yb       0.00000000       0.00000000       5.11818182       0.00000000       0.00000000      -0.14110252
2
Properties=species:S:1:pos:R:3:forces:R:3 energy=-0.23311772468865302 pbc="F F F"
Yb       0.00000000       0.00000000       0.00000000       0.00000000       0.00000000       0.13260868
Yb       0.00000000       0.00000000       5.17696970       0.00000000       0.00000000      -0.13260868
2
Properties=species:S:1:pos:R:3:forces:R:3 energy=-0.22556854062124154 pbc="F F F"
Yb       0.00000000       0.00000000       0.00000000       0.00000000       0.00000000       0.12426141
Yb       0.00000000       0.00000000       5.23575758       0.00000000       0.00000000      -0.12426141
2
Properties=species:S:1:pos:R:3:forces:R:3 energy=-0.21850379218661495 pbc="F F F"
Yb       0.00000000       0.00000000       0.00000000       0.00000000       0.00000000       0.11612043
Yb       0.00000000       0.00000000       5.29454545       0.00000000       0.00000000      -0.11612043
2
Properties=species:S:1:pos:R:3:forces:R:3 energy=-0.2119130004315402 pbc="F F F"
Yb       0.00000000       0.00000000       0.00000000       0.00000000       0.00000000       0.10809658
Yb       0.00000000       0.00000000       5.35333333       0.00000000       0.00000000      -0.10809658
2
Properties=species:S:1:pos:R:3:forces:R:3 energy=-0.2057948074353604 pbc="F F F"
Yb       0.00000000       0.00000000       0.00000000       0.00000000       0.00000000       0.10001528
Yb       0.00000000       0.00000000       5.41212121       0.00000000       0.00000000      -0.10001528
2
Properties=species:S:1:pos:R:3:forces:R:3 energy=-0.20015833196169006 pbc="F F F"
Yb       0.00000000       0.00000000       0.00000000       0.00000000       0.00000000       0.09169804
Yb       0.00000000       0.00000000       5.47090909       0.00000000       0.00000000      -0.09169804
2
Properties=species:S:1:pos:R:3:forces:R:3 energy=-0.19501974173133535 pbc="F F F"
Yb       0.00000000       0.00000000       0.00000000       0.00000000       0.00000000       0.08305785
Yb       0.00000000       0.00000000       5.52969697       0.00000000       0.00000000      -0.08305785
2
Properties=species:S:1:pos:R:3:forces:R:3 energy=-0.19039819397080515 pbc="F F F"
Yb       0.00000000       0.00000000       0.00000000       0.00000000       0.00000000       0.07413970
Yb       0.00000000       0.00000000       5.58848485       0.00000000       0.00000000      -0.07413970
2
Properties=species:S:1:pos:R:3:forces:R:3 energy=-0.18630402994084733 pbc="F F F"
Yb       0.00000000       0.00000000       0.00000000       0.00000000       0.00000000       0.06515709
Yb       0.00000000       0.00000000       5.64727273       0.00000000       0.00000000      -0.06515709
2
Properties=species:S:1:pos:R:3:forces:R:3 energy=-0.18273288780982505 pbc="F F F"
Yb       0.00000000       0.00000000       0.00000000       0.00000000       0.00000000       0.05643332
Yb       0.00000000       0.00000000       5.70606061       0.00000000       0.00000000      -0.05643332
2
Properties=species:S:1:pos:R:3:forces:R:3 energy=-0.17965456233681212 pbc="F F F"
Yb       0.00000000       0.00000000       0.00000000       0.00000000       0.00000000       0.04836323
Yb       0.00000000       0.00000000       5.76484848       0.00000000       0.00000000      -0.04836323
2
Properties=species:S:1:pos:R:3:forces:R:3 energy=-0.17702426216791461 pbc="F F F"
Yb       0.00000000       0.00000000       0.00000000       0.00000000       0.00000000       0.04136818
Yb       0.00000000       0.00000000       5.82363636       0.00000000       0.00000000      -0.04136818
2
Properties=species:S:1:pos:R:3:forces:R:3 energy=-0.17476420456629238 pbc="F F F"
Yb       0.00000000       0.00000000       0.00000000       0.00000000       0.00000000       0.03581764
Yb       0.00000000       0.00000000       5.88242424       0.00000000       0.00000000      -0.03581764
2
Properties=species:S:1:pos:R:3:forces:R:3 energy=-0.17277861665173844 pbc="F F F"
Yb       0.00000000       0.00000000       0.00000000       0.00000000       0.00000000       0.03201767
Yb       0.00000000       0.00000000       5.94121212       0.00000000       0.00000000      -0.03201767
2
Properties=species:S:1:pos:R:3:forces:R:3 energy=-0.1709597390467147 pbc="F F F"
Yb       0.00000000       0.00000000       0.00000000       0.00000000       0.00000000       0.03022114
Yb       0.00000000       0.00000000       6.00000000       0.00000000       0.00000000      -0.03022114
