2
Properties=species:S:1:pos:R:3:forces:R:3 energy=19664.223785485203 pbc="F F F"
Zn       0.00000000       0.00000000       0.00000000       0.00000000       0.00000000 -447429.46875000
Zn       0.00000000       0.00000000       0.10000000       0.00000000       0.00000000  447429.46875000
2
Properties=species:S:1:pos:R:3:forces:R:3 energy=6145.377594078955 pbc="F F F"
Zn       0.00000000       0.00000000       0.00000000       0.00000000       0.00000000 -104372.84375000
Zn       0.00000000       0.00000000       0.15959596       0.00000000       0.00000000  104372.84375000
2
Properties=species:S:1:pos:R:3:forces:R:3 energy=2467.2904358758296 pbc="F F F"
Zn       0.00000000       0.00000000       0.00000000       0.00000000       0.00000000  -34339.52734375
Zn       0.00000000       0.00000000       0.21919192       0.00000000       0.00000000   34339.52734375
2
Properties=species:S:1:pos:R:3:forces:R:3 energy=1143.0300599024347 pbc="F F F"
Zn       0.00000000       0.00000000       0.00000000       0.00000000       0.00000000  -13758.72460938
Zn       0.00000000       0.00000000       0.27878788       0.00000000       0.00000000   13758.72460938
2
Properties=species:S:1:pos:R:3:forces:R:3 energy=581.2377015039973 pbc="F F F"
Zn       0.00000000       0.00000000       0.00000000       0.00000000       0.00000000   -6229.89062500
Zn       0.00000000       0.00000000       0.33838384       0.00000000       0.00000000    6229.89062500
2
Properties=species:S:1:pos:R:3:forces:R:3 energy=317.2063599575985 pbc="F F F"
Zn       0.00000000       0.00000000       0.00000000       0.00000000       0.00000000   -3052.28369141
Zn       0.00000000       0.00000000       0.39797980       0.00000000       0.00000000    3052.28369141
2
Properties=species:S:1:pos:R:3:forces:R:3 energy=184.58287059355484 pbc="F F F"
Zn       0.00000000       0.00000000       0.00000000       0.00000000       0.00000000   -1575.55615234
Zn       0.00000000       0.00000000       0.45757576       0.00000000       0.00000000    1575.55615234
2
Properties=species:S:1:pos:R:3:forces:R:3 energy=115.01100172558085 pbc="F F F"
Zn       0.00000000       0.00000000       0.00000000       0.00000000       0.00000000    -840.37664795
Zn       0.00000000       0.00000000       0.51717172       0.00000000       0.00000000     840.37664795
2
Properties=species:S:1:pos:R:3:forces:R:3 energy=77.59933490614883 pbc="F F F"
Zn       0.00000000       0.00000000       0.00000000       0.00000000       0.00000000    -454.95812988
Zn       0.00000000       0.00000000       0.57676768       0.00000000       0.00000000     454.95812988
2
Properties=species:S:1:pos:R:3:forces:R:3 energy=57.326481137193845 pbc="F F F"
Zn       0.00000000       0.00000000       0.00000000       0.00000000       0.00000000    -246.46011353
Zn       0.00000000       0.00000000       0.63636364       0.00000000       0.00000000     246.46011353
2
Properties=species:S:1:pos:R:3:forces:R:3 energy=46.29834024851386 pbc="F F F"
Zn       0.00000000       0.00000000       0.00000000       0.00000000       0.00000000    -136.24060059
Zn       0.00000000       0.00000000       0.69595960       0.00000000       0.00000000     136.24060059
2
Properties=species:S:1:pos:R:3:forces:R:3 energy=39.863609927804966 pbc="F F F"
Zn       0.00000000       0.00000000       0.00000000       0.00000000       0.00000000     -87.75910950
Zn       0.00000000       0.00000000       0.75555556       0.00000000       0.00000000      87.75910950
2
Properties=species:S:1:pos:R:3:forces:R:3 energy=35.17569443624958 pbc="F F F"
Zn       0.00000000       0.00000000       0.00000000       0.00000000       0.00000000     -72.89515686
Zn       0.00000000       0.00000000       0.81515152       0.00000000       0.00000000      72.89515686
2
Properties=species:S:1:pos:R:3:forces:R:3 energy=30.90991919920269 pbc="F F F"
Zn       0.00000000       0.00000000       0.00000000       0.00000000       0.00000000     -71.97297668
Zn       0.00000000       0.00000000       0.87474747       0.00000000       0.00000000      71.97297668
2
Properties=species:S:1:pos:R:3:forces:R:3 energy=26.435430623898807 pbc="F F F"
Zn       0.00000000       0.00000000       0.00000000       0.00000000       0.00000000     -78.96131134
Zn       0.00000000       0.00000000       0.93434343       0.00000000       0.00000000      78.96131134
2
Properties=species:S:1:pos:R:3:forces:R:3 energy=21.481276529956002 pbc="F F F"
Zn       0.00000000       0.00000000       0.00000000       0.00000000       0.00000000     -87.11629486
Zn       0.00000000       0.00000000       0.99393939       0.00000000       0.00000000      87.11629486
2
Properties=species:S:1:pos:R:3:forces:R:3 energy=16.0896208486146 pbc="F F F"
Zn       0.00000000       0.00000000       0.00000000       0.00000000       0.00000000     -92.80755615
Zn       0.00000000       0.00000000       1.05353535       0.00000000       0.00000000      92.80755615
2
Properties=species:S:1:pos:R:3:forces:R:3 energy=10.822585047198721 pbc="F F F"
Zn       0.00000000       0.00000000       0.00000000       0.00000000       0.00000000     -78.17093658
Zn       0.00000000       0.00000000       1.11313131       0.00000000       0.00000000      78.17093658
2
Properties=species:S:1:pos:R:3:forces:R:3 energy=7.267058026712754 pbc="F F F"
Zn       0.00000000       0.00000000       0.00000000       0.00000000       0.00000000     -41.27771378
Zn       0.00000000       0.00000000       1.17272727       0.00000000       0.00000000      41.27771378
2
Properties=species:S:1:pos:R:3:forces:R:3 energy=5.56001614643155 pbc="F F F"
Zn       0.00000000       0.00000000       0.00000000       0.00000000       0.00000000     -19.15801239
Zn       0.00000000       0.00000000       1.23232323       0.00000000       0.00000000      19.15801239
2
Properties=species:S:1:pos:R:3:forces:R:3 energy=4.714571149749681 pbc="F F F"
Zn       0.00000000       0.00000000       0.00000000       0.00000000       0.00000000     -10.81250000
Zn       0.00000000       0.00000000       1.29191919       0.00000000       0.00000000      10.81250000
2
Properties=species:S:1:pos:R:3:forces:R:3 energy=4.147865115761578 pbc="F F F"
Zn       0.00000000       0.00000000       0.00000000       0.00000000       0.00000000      -8.70049953
Zn       0.00000000       0.00000000       1.35151515       0.00000000       0.00000000       8.70049953
2
Properties=species:S:1:pos:R:3:forces:R:3 energy=3.6571685515476493 pbc="F F F"
Zn       0.00000000       0.00000000       0.00000000       0.00000000       0.00000000      -7.78106689
Zn       0.00000000       0.00000000       1.41111111       0.00000000       0.00000000       7.78106689
2
Properties=species:S:1:pos:R:3:forces:R:3 energy=3.219652845648783 pbc="F F F"
Zn       0.00000000       0.00000000       0.00000000       0.00000000       0.00000000      -6.93587637
Zn       0.00000000       0.00000000       1.47070707       0.00000000       0.00000000       6.93587637
2
Properties=species:S:1:pos:R:3:forces:R:3 energy=2.822820346406424 pbc="F F F"
Zn       0.00000000       0.00000000       0.00000000       0.00000000       0.00000000      -6.46296597
Zn       0.00000000       0.00000000       1.53030303       0.00000000       0.00000000       6.46296597
2
Properties=species:S:1:pos:R:3:forces:R:3 energy=2.440068571693659 pbc="F F F"
Zn       0.00000000       0.00000000       0.00000000       0.00000000       0.00000000      -6.44403172
Zn       0.00000000       0.00000000       1.58989899       0.00000000       0.00000000       6.44403172
2
Properties=species:S:1:pos:R:3:forces:R:3 energy=2.0505444432299873 pbc="F F F"
Zn       0.00000000       0.00000000       0.00000000       0.00000000       0.00000000      -6.63267946
Zn       0.00000000       0.00000000       1.64949495       0.00000000       0.00000000       6.63267946
2
Properties=species:S:1:pos:R:3:forces:R:3 energy=1.6524762008621472 pbc="F F F"
Zn       0.00000000       0.00000000       0.00000000       0.00000000       0.00000000      -6.67637873
Zn       0.00000000       0.00000000       1.70909091       0.00000000       0.00000000       6.67637873
2
Properties=species:S:1:pos:R:3:forces:R:3 energy=1.2624914704069587 pbc="F F F"
Zn       0.00000000       0.00000000       0.00000000       0.00000000       0.00000000      -6.33940554
Zn       0.00000000       0.00000000       1.76868687       0.00000000       0.00000000       6.33940554
2
Properties=species:S:1:pos:R:3:forces:R:3 energy=0.9049760492513593 pbc="F F F"
Zn       0.00000000       0.00000000       0.00000000       0.00000000       0.00000000      -5.60012484
Zn       0.00000000       0.00000000       1.82828283       0.00000000       0.00000000       5.60012484
2
Properties=species:S:1:pos:R:3:forces:R:3 energy=0.600089473019972 pbc="F F F"
Zn       0.00000000       0.00000000       0.00000000       0.00000000       0.00000000      -4.60684538
Zn       0.00000000       0.00000000       1.88787879       0.00000000       0.00000000       4.60684538
2
Properties=species:S:1:pos:R:3:forces:R:3 energy=0.3566418404079303 pbc="F F F"
Zn       0.00000000       0.00000000       0.00000000       0.00000000       0.00000000      -3.57397723
Zn       0.00000000       0.00000000       1.94747475       0.00000000       0.00000000       3.57397723
2
Properties=species:S:1:pos:R:3:forces:R:3 energy=0.17116583228992732 pbc="F F F"
Zn       0.00000000       0.00000000       0.00000000       0.00000000       0.00000000      -2.68549275
Zn       0.00000000       0.00000000       2.00707071       0.00000000       0.00000000       2.68549275
2
Properties=species:S:1:pos:R:3:forces:R:3 energy=0.03182293039757195 pbc="F F F"
Zn       0.00000000       0.00000000       0.00000000       0.00000000       0.00000000      -2.03134751
Zn       0.00000000       0.00000000       2.06666667       0.00000000       0.00000000       2.03134751
2
Properties=species:S:1:pos:R:3:forces:R:3 energy=-0.07532507706055602 pbc="F F F"
Zn       0.00000000       0.00000000       0.00000000       0.00000000       0.00000000      -1.59504962
Zn       0.00000000       0.00000000       2.12626263       0.00000000       0.00000000       1.59504962
2
Properties=species:S:1:pos:R:3:forces:R:3 energy=-0.16105961631593818 pbc="F F F"
Zn       0.00000000       0.00000000       0.00000000       0.00000000       0.00000000      -1.29819143
Zn       0.00000000       0.00000000       2.18585859       0.00000000       0.00000000       1.29819143
2
Properties=species:S:1:pos:R:3:forces:R:3 energy=-0.23131409198726507 pbc="F F F"
Zn       0.00000000       0.00000000       0.00000000       0.00000000       0.00000000      -1.06602716
Zn       0.00000000       0.00000000       2.24545455       0.00000000       0.00000000       1.06602716
2
Properties=species:S:1:pos:R:3:forces:R:3 energy=-0.2886837257292954 pbc="F F F"
Zn       0.00000000       0.00000000       0.00000000       0.00000000       0.00000000      -0.86338639
Zn       0.00000000       0.00000000       2.30505051       0.00000000       0.00000000       0.86338639
2
Properties=species:S:1:pos:R:3:forces:R:3 energy=-0.33477698777749537 pbc="F F F"
Zn       0.00000000       0.00000000       0.00000000       0.00000000       0.00000000      -0.68897170
Zn       0.00000000       0.00000000       2.36464646       0.00000000       0.00000000       0.68897170
2
Properties=species:S:1:pos:R:3:forces:R:3 energy=-0.37156068740926995 pbc="F F F"
Zn       0.00000000       0.00000000       0.00000000       0.00000000       0.00000000      -0.55237746
Zn       0.00000000       0.00000000       2.42424242       0.00000000       0.00000000       0.55237746
2
Properties=species:S:1:pos:R:3:forces:R:3 energy=-0.4014326951741946 pbc="F F F"
Zn       0.00000000       0.00000000       0.00000000       0.00000000       0.00000000      -0.45642361
Zn       0.00000000       0.00000000       2.48383838       0.00000000       0.00000000       0.45642361
2
Properties=species:S:1:pos:R:3:forces:R:3 energy=-0.4265616274522297 pbc="F F F"
Zn       0.00000000       0.00000000       0.00000000       0.00000000       0.00000000      -0.39021605
Zn       0.00000000       0.00000000       2.54343434       0.00000000       0.00000000       0.39021605
2
Properties=species:S:1:pos:R:3:forces:R:3 energy=-0.4481186811349184 pbc="F F F"
Zn       0.00000000       0.00000000       0.00000000       0.00000000       0.00000000      -0.33309489
Zn       0.00000000       0.00000000       2.60303030       0.00000000       0.00000000       0.33309489
2
Properties=species:S:1:pos:R:3:forces:R:3 energy=-0.4661743831132262 pbc="F F F"
Zn       0.00000000       0.00000000       0.00000000       0.00000000       0.00000000      -0.27227128
Zn       0.00000000       0.00000000       2.66262626       0.00000000       0.00000000       0.27227128
2
Properties=species:S:1:pos:R:3:forces:R:3 energy=-0.4806016934149851 pbc="F F F"
Zn       0.00000000       0.00000000       0.00000000       0.00000000       0.00000000      -0.21292944
Zn       0.00000000       0.00000000       2.72222222       0.00000000       0.00000000       0.21292944
2
Properties=species:S:1:pos:R:3:forces:R:3 energy=-0.49170887369697747 pbc="F F F"
Zn       0.00000000       0.00000000       0.00000000       0.00000000       0.00000000      -0.16102968
Zn       0.00000000       0.00000000       2.78181818       0.00000000       0.00000000       0.16102968
2
Properties=species:S:1:pos:R:3:forces:R:3 energy=-0.4998992288819133 pbc="F F F"
Zn       0.00000000       0.00000000       0.00000000       0.00000000       0.00000000      -0.11439598
Zn       0.00000000       0.00000000       2.84141414       0.00000000       0.00000000       0.11439598
2
Properties=species:S:1:pos:R:3:forces:R:3 energy=-0.5053887817576523 pbc="F F F"
Zn       0.00000000       0.00000000       0.00000000       0.00000000       0.00000000      -0.07012993
Zn       0.00000000       0.00000000       2.90101010       0.00000000       0.00000000       0.07012993
2
Properties=species:S:1:pos:R:3:forces:R:3 energy=-0.5082994346487405 pbc="F F F"
Zn       0.00000000       0.00000000       0.00000000       0.00000000       0.00000000      -0.02796987
Zn       0.00000000       0.00000000       2.96060606       0.00000000       0.00000000       0.02796987
2
Properties=species:S:1:pos:R:3:forces:R:3 energy=-0.5087840616430632 pbc="F F F"
Zn       0.00000000       0.00000000       0.00000000       0.00000000       0.00000000       0.01110173
Zn       0.00000000       0.00000000       3.02020202       0.00000000       0.00000000      -0.01110173
2
Properties=species:S:1:pos:R:3:forces:R:3 energy=-0.5070561264536232 pbc="F F F"
Zn       0.00000000       0.00000000       0.00000000       0.00000000       0.00000000       0.04616221
Zn       0.00000000       0.00000000       3.07979798       0.00000000       0.00000000      -0.04616221
2
Properties=species:S:1:pos:R:3:forces:R:3 energy=-0.5033730467460757 pbc="F F F"
Zn       0.00000000       0.00000000       0.00000000       0.00000000       0.00000000       0.07664773
Zn       0.00000000       0.00000000       3.13939394       0.00000000       0.00000000      -0.07664773
2
Properties=species:S:1:pos:R:3:forces:R:3 energy=-0.4980175565167236 pbc="F F F"
Zn       0.00000000       0.00000000       0.00000000       0.00000000       0.00000000       0.10224514
Zn       0.00000000       0.00000000       3.19898990       0.00000000       0.00000000      -0.10224514
2
Properties=species:S:1:pos:R:3:forces:R:3 energy=-0.491286852931689 pbc="F F F"
Zn       0.00000000       0.00000000       0.00000000       0.00000000       0.00000000       0.12277505
Zn       0.00000000       0.00000000       3.25858586       0.00000000       0.00000000      -0.12277505
2
Properties=species:S:1:pos:R:3:forces:R:3 energy=-0.48348576488752965 pbc="F F F"
Zn       0.00000000       0.00000000       0.00000000       0.00000000       0.00000000       0.13816676
Zn       0.00000000       0.00000000       3.31818182       0.00000000       0.00000000      -0.13816676
2
Properties=species:S:1:pos:R:3:forces:R:3 energy=-0.47491955527243745 pbc="F F F"
Zn       0.00000000       0.00000000       0.00000000       0.00000000       0.00000000       0.14847757
Zn       0.00000000       0.00000000       3.37777778       0.00000000       0.00000000      -0.14847757
2
Properties=species:S:1:pos:R:3:forces:R:3 energy=-0.46588520401694267 pbc="F F F"
Zn       0.00000000       0.00000000       0.00000000       0.00000000       0.00000000       0.15393248
Zn       0.00000000       0.00000000       3.43737374       0.00000000       0.00000000      -0.15393248
2
Properties=species:S:1:pos:R:3:forces:R:3 energy=-0.4566601446919506 pbc="F F F"
Zn       0.00000000       0.00000000       0.00000000       0.00000000       0.00000000       0.15495968
Zn       0.00000000       0.00000000       3.49696970       0.00000000       0.00000000      -0.15495968
2
Properties=species:S:1:pos:R:3:forces:R:3 energy=-0.4474905571157933 pbc="F F F"
Zn       0.00000000       0.00000000       0.00000000       0.00000000       0.00000000       0.15219875
Zn       0.00000000       0.00000000       3.55656566       0.00000000       0.00000000      -0.15219875
2
Properties=species:S:1:pos:R:3:forces:R:3 energy=-0.4385787210820947 pbc="F F F"
Zn       0.00000000       0.00000000       0.00000000       0.00000000       0.00000000       0.14645745
Zn       0.00000000       0.00000000       3.61616162       0.00000000       0.00000000      -0.14645745
2
Properties=species:S:1:pos:R:3:forces:R:3 energy=-0.4300758478393161 pbc="F F F"
Zn       0.00000000       0.00000000       0.00000000       0.00000000       0.00000000       0.13861029
Zn       0.00000000       0.00000000       3.67575758       0.00000000       0.00000000      -0.13861029
2
Properties=species:S:1:pos:R:3:forces:R:3 energy=-0.42208269139233845 pbc="F F F"
Zn       0.00000000       0.00000000       0.00000000       0.00000000       0.00000000       0.12947886
Zn       0.00000000       0.00000000       3.73535354       0.00000000       0.00000000      -0.12947886
2
Properties=species:S:1:pos:R:3:forces:R:3 energy=-0.4146549490584587 pbc="F F F"
Zn       0.00000000       0.00000000       0.00000000       0.00000000       0.00000000       0.11973593
Zn       0.00000000       0.00000000       3.79494949       0.00000000       0.00000000      -0.11973593
2
Properties=species:S:1:pos:R:3:forces:R:3 energy=-0.40781348366396886 pbc="F F F"
Zn       0.00000000       0.00000000       0.00000000       0.00000000       0.00000000       0.10986903
Zn       0.00000000       0.00000000       3.85454545       0.00000000       0.00000000      -0.10986903
2
Properties=species:S:1:pos:R:3:forces:R:3 energy=-0.40155530863777567 pbc="F F F"
Zn       0.00000000       0.00000000       0.00000000       0.00000000       0.00000000       0.10020722
Zn       0.00000000       0.00000000       3.91414141       0.00000000       0.00000000      -0.10020722
2
Properties=species:S:1:pos:R:3:forces:R:3 energy=-0.3958611115758778 pbc="F F F"
Zn       0.00000000       0.00000000       0.00000000       0.00000000       0.00000000       0.09097269
Zn       0.00000000       0.00000000       3.97373737       0.00000000       0.00000000      -0.09097269
2
Properties=species:S:1:pos:R:3:forces:R:3 energy=-0.3907002852061519 pbc="F F F"
Zn       0.00000000       0.00000000       0.00000000       0.00000000       0.00000000       0.08233434
Zn       0.00000000       0.00000000       4.03333333       0.00000000       0.00000000      -0.08233434
2
Properties=species:S:1:pos:R:3:forces:R:3 energy=-0.38603289446560146 pbc="F F F"
Zn       0.00000000       0.00000000       0.00000000       0.00000000       0.00000000       0.07443167
Zn       0.00000000       0.00000000       4.09292929       0.00000000       0.00000000      -0.07443167
2
Properties=species:S:1:pos:R:3:forces:R:3 energy=-0.38181173932021667 pbc="F F F"
Zn       0.00000000       0.00000000       0.00000000       0.00000000       0.00000000       0.06737401
Zn       0.00000000       0.00000000       4.15252525       0.00000000       0.00000000      -0.06737401
2
Properties=species:S:1:pos:R:3:forces:R:3 energy=-0.3779844004538007 pbc="F F F"
Zn       0.00000000       0.00000000       0.00000000       0.00000000       0.00000000       0.06122370
Zn       0.00000000       0.00000000       4.21212121       0.00000000       0.00000000      -0.06122370
2
Properties=species:S:1:pos:R:3:forces:R:3 energy=-0.3744963414173152 pbc="F F F"
Zn       0.00000000       0.00000000       0.00000000       0.00000000       0.00000000       0.05597923
Zn       0.00000000       0.00000000       4.27171717       0.00000000       0.00000000      -0.05597923
2
Properties=species:S:1:pos:R:3:forces:R:3 energy=-0.37129550523011906 pbc="F F F"
Zn       0.00000000       0.00000000       0.00000000       0.00000000       0.00000000       0.05156981
Zn       0.00000000       0.00000000       4.33131313       0.00000000       0.00000000      -0.05156981
2
Properties=species:S:1:pos:R:3:forces:R:3 energy=-0.36833572593190367 pbc="F F F"
Zn       0.00000000       0.00000000       0.00000000       0.00000000       0.00000000       0.04786026
Zn       0.00000000       0.00000000       4.39090909       0.00000000       0.00000000      -0.04786026
2
Properties=species:S:1:pos:R:3:forces:R:3 energy=-0.3655806143879394 pbc="F F F"
Zn       0.00000000       0.00000000       0.00000000       0.00000000       0.00000000       0.04466591
Zn       0.00000000       0.00000000       4.45050505       0.00000000       0.00000000      -0.04466591
2
Properties=species:S:1:pos:R:3:forces:R:3 energy=-0.3630058822862461 pbc="F F F"
Zn       0.00000000       0.00000000       0.00000000       0.00000000       0.00000000       0.04177359
Zn       0.00000000       0.00000000       4.51010101       0.00000000       0.00000000      -0.04177359
2
Properties=species:S:1:pos:R:3:forces:R:3 energy=-0.3605998095952556 pbc="F F F"
Zn       0.00000000       0.00000000       0.00000000       0.00000000       0.00000000       0.03897104
Zn       0.00000000       0.00000000       4.56969697       0.00000000       0.00000000      -0.03897104
2
Properties=species:S:1:pos:R:3:forces:R:3 energy=-0.35836253493577214 pbc="F F F"
Zn       0.00000000       0.00000000       0.00000000       0.00000000       0.00000000       0.03608512
Zn       0.00000000       0.00000000       4.62929293       0.00000000       0.00000000      -0.03608512
2
Properties=species:S:1:pos:R:3:forces:R:3 energy=-0.3563023525893993 pbc="F F F"
Zn       0.00000000       0.00000000       0.00000000       0.00000000       0.00000000       0.03302275
Zn       0.00000000       0.00000000       4.68888889       0.00000000       0.00000000      -0.03302275
2
Properties=species:S:1:pos:R:3:forces:R:3 energy=-0.3544298343974387 pbc="F F F"
Zn       0.00000000       0.00000000       0.00000000       0.00000000       0.00000000       0.02979644
Zn       0.00000000       0.00000000       4.74848485       0.00000000       0.00000000      -0.02979644
2
Properties=species:S:1:pos:R:3:forces:R:3 energy=-0.3527518528733256 pbc="F F F"
Zn       0.00000000       0.00000000       0.00000000       0.00000000       0.00000000       0.02652331
Zn       0.00000000       0.00000000       4.80808081       0.00000000       0.00000000      -0.02652331
2
Properties=species:S:1:pos:R:3:forces:R:3 energy=-0.35126571952461416 pbc="F F F"
Zn       0.00000000       0.00000000       0.00000000       0.00000000       0.00000000       0.02339046
Zn       0.00000000       0.00000000       4.86767677       0.00000000       0.00000000      -0.02339046
2
Properties=species:S:1:pos:R:3:forces:R:3 energy=-0.3499570419615992 pbc="F F F"
Zn       0.00000000       0.00000000       0.00000000       0.00000000       0.00000000       0.02060090
Zn       0.00000000       0.00000000       4.92727273       0.00000000       0.00000000      -0.02060090
2
Properties=species:S:1:pos:R:3:forces:R:3 energy=-0.3488001198310392 pbc="F F F"
Zn       0.00000000       0.00000000       0.00000000       0.00000000       0.00000000       0.01831887
Zn       0.00000000       0.00000000       4.98686869       0.00000000       0.00000000      -0.01831887
2
Properties=species:S:1:pos:R:3:forces:R:3 energy=-0.3477616364283627 pbc="F F F"
Zn       0.00000000       0.00000000       0.00000000       0.00000000       0.00000000       0.01663427
Zn       0.00000000       0.00000000       5.04646465       0.00000000       0.00000000      -0.01663427
2
Properties=species:S:1:pos:R:3:forces:R:3 energy=-0.346805496177362 pbc="F F F"
Zn       0.00000000       0.00000000       0.00000000       0.00000000       0.00000000       0.01554958
Zn       0.00000000       0.00000000       5.10606061       0.00000000       0.00000000      -0.01554958
2
Properties=species:S:1:pos:R:3:forces:R:3 energy=-0.3458978012020725 pbc="F F F"
Zn       0.00000000       0.00000000       0.00000000       0.00000000       0.00000000       0.01498926
Zn       0.00000000       0.00000000       5.16565657       0.00000000       0.00000000      -0.01498926
2
Properties=species:S:1:pos:R:3:forces:R:3 energy=-0.3450111204784623 pbc="F F F"
Zn       0.00000000       0.00000000       0.00000000       0.00000000       0.00000000       0.01481871
Zn       0.00000000       0.00000000       5.22525253       0.00000000       0.00000000      -0.01481871
2
Properties=species:S:1:pos:R:3:forces:R:3 energy=-0.3441271385733349 pbc="F F F"
Zn       0.00000000       0.00000000       0.00000000       0.00000000       0.00000000       0.01486975
Zn       0.00000000       0.00000000       5.28484848       0.00000000       0.00000000      -0.01486975
2
Properties=species:S:1:pos:R:3:forces:R:3 energy=-0.34323788633506647 pbc="F F F"
Zn       0.00000000       0.00000000       0.00000000       0.00000000       0.00000000       0.01496603
Zn       0.00000000       0.00000000       5.34444444       0.00000000       0.00000000      -0.01496603
2
Properties=species:S:1:pos:R:3:forces:R:3 energy=-0.3423455918819941 pbc="F F F"
Zn       0.00000000       0.00000000       0.00000000       0.00000000       0.00000000       0.01494723
Zn       0.00000000       0.00000000       5.40404040       0.00000000       0.00000000      -0.01494723
2
Properties=species:S:1:pos:R:3:forces:R:3 energy=-0.3414609629471151 pbc="F F F"
Zn       0.00000000       0.00000000       0.00000000       0.00000000       0.00000000       0.01469136
Zn       0.00000000       0.00000000       5.46363636       0.00000000       0.00000000      -0.01469136
2
Properties=species:S:1:pos:R:3:forces:R:3 energy=-0.34060072358075094 pbc="F F F"
Zn       0.00000000       0.00000000       0.00000000       0.00000000       0.00000000       0.01412952
Zn       0.00000000       0.00000000       5.52323232       0.00000000       0.00000000      -0.01412952
2
Properties=species:S:1:pos:R:3:forces:R:3 energy=-0.3397831662689321 pbc="F F F"
Zn       0.00000000       0.00000000       0.00000000       0.00000000       0.00000000       0.01325592
Zn       0.00000000       0.00000000       5.58282828       0.00000000       0.00000000      -0.01325592
2
Properties=species:S:1:pos:R:3:forces:R:3 energy=-0.33902593547416404 pbc="F F F"
Zn       0.00000000       0.00000000       0.00000000       0.00000000       0.00000000       0.01212091
Zn       0.00000000       0.00000000       5.64242424       0.00000000       0.00000000      -0.01212091
2
Properties=species:S:1:pos:R:3:forces:R:3 energy=-0.33834164094236757 pbc="F F F"
Zn       0.00000000       0.00000000       0.00000000       0.00000000       0.00000000       0.01081955
Zn       0.00000000       0.00000000       5.70202020       0.00000000       0.00000000      -0.01081955
2
Properties=species:S:1:pos:R:3:forces:R:3 energy=-0.3377373244288983 pbc="F F F"
Zn       0.00000000       0.00000000       0.00000000       0.00000000       0.00000000       0.00947013
Zn       0.00000000       0.00000000       5.76161616       0.00000000       0.00000000      -0.00947013
2
Properties=species:S:1:pos:R:3:forces:R:3 energy=-0.3372115374870416 pbc="F F F"
Zn       0.00000000       0.00000000       0.00000000       0.00000000       0.00000000       0.00819329
Zn       0.00000000       0.00000000       5.82121212       0.00000000       0.00000000      -0.00819329
2
Properties=species:S:1:pos:R:3:forces:R:3 energy=-0.336757295357739 pbc="F F F"
Zn       0.00000000       0.00000000       0.00000000       0.00000000       0.00000000       0.00709356
Zn       0.00000000       0.00000000       5.88080808       0.00000000       0.00000000      -0.00709356
2
Properties=species:S:1:pos:R:3:forces:R:3 energy=-0.3363608384433041 pbc="F F F"
Zn       0.00000000       0.00000000       0.00000000       0.00000000       0.00000000       0.00625034
Zn       0.00000000       0.00000000       5.94040404       0.00000000       0.00000000      -0.00625034
2
Properties=species:S:1:pos:R:3:forces:R:3 energy=-0.3360060079971128 pbc="F F F"
Zn       0.00000000       0.00000000       0.00000000       0.00000000       0.00000000       0.00571529
Zn       0.00000000       0.00000000       6.00000000       0.00000000       0.00000000      -0.00571529
