2
Properties=species:S:1:pos:R:3:forces:R:3 energy=31286.821980678244 pbc="F F F"
Zr       0.00000000       0.00000000       0.00000000       0.00000000       0.00000000 -733881.06250000
Zr       0.00000000       0.00000000       0.10000000       0.00000000       0.00000000  733881.06250000
2
Properties=species:S:1:pos:R:3:forces:R:3 energy=9464.158894740744 pbc="F F F"
Zr       0.00000000       0.00000000       0.00000000       0.00000000       0.00000000 -164626.25000000
Zr       0.00000000       0.00000000       0.15959596       0.00000000       0.00000000  164626.25000000
2
Properties=species:S:1:pos:R:3:forces:R:3 energy=3732.4189045063695 pbc="F F F"
Zr       0.00000000       0.00000000       0.00000000       0.00000000       0.00000000  -52654.10156250
Zr       0.00000000       0.00000000       0.21919192       0.00000000       0.00000000   52654.10156250
2
Properties=species:S:1:pos:R:3:forces:R:3 energy=1723.4716388813692 pbc="F F F"
Zr       0.00000000       0.00000000       0.00000000       0.00000000       0.00000000  -20571.71875000
Zr       0.00000000       0.00000000       0.27878788       0.00000000       0.00000000   20571.71875000
2
Properties=species:S:1:pos:R:3:forces:R:3 energy=892.7874958149631 pbc="F F F"
Zr       0.00000000       0.00000000       0.00000000       0.00000000       0.00000000   -9077.45117188
Zr       0.00000000       0.00000000       0.33838384       0.00000000       0.00000000    9077.45117188
2
Properties=species:S:1:pos:R:3:forces:R:3 energy=512.4043171040256 pbc="F F F"
Zr       0.00000000       0.00000000       0.00000000       0.00000000       0.00000000   -4335.83593750
Zr       0.00000000       0.00000000       0.39797980       0.00000000       0.00000000    4335.83593750
2
Properties=species:S:1:pos:R:3:forces:R:3 energy=325.9004719018531 pbc="F F F"
Zr       0.00000000       0.00000000       0.00000000       0.00000000       0.00000000   -2190.32299805
Zr       0.00000000       0.00000000       0.45757576       0.00000000       0.00000000    2190.32299805
2
Properties=species:S:1:pos:R:3:forces:R:3 energy=229.82539866600126 pbc="F F F"
Zr       0.00000000       0.00000000       0.00000000       0.00000000       0.00000000   -1153.51477051
Zr       0.00000000       0.00000000       0.51717172       0.00000000       0.00000000    1153.51477051
2
Properties=species:S:1:pos:R:3:forces:R:3 energy=178.49324537103135 pbc="F F F"
Zr       0.00000000       0.00000000       0.00000000       0.00000000       0.00000000    -626.08239746
Zr       0.00000000       0.00000000       0.57676768       0.00000000       0.00000000     626.08239746
2
Properties=species:S:1:pos:R:3:forces:R:3 energy=150.35652665904522 pbc="F F F"
Zr       0.00000000       0.00000000       0.00000000       0.00000000       0.00000000    -346.86285400
Zr       0.00000000       0.00000000       0.63636364       0.00000000       0.00000000     346.86285400
2
Properties=species:S:1:pos:R:3:forces:R:3 energy=134.62860618383945 pbc="F F F"
Zr       0.00000000       0.00000000       0.00000000       0.00000000       0.00000000    -196.54827881
Zr       0.00000000       0.00000000       0.69595960       0.00000000       0.00000000     196.54827881
2
Properties=species:S:1:pos:R:3:forces:R:3 energy=125.48704286334677 pbc="F F F"
Zr       0.00000000       0.00000000       0.00000000       0.00000000       0.00000000    -119.79779053
Zr       0.00000000       0.00000000       0.75555556       0.00000000       0.00000000     119.79779053
2
Properties=species:S:1:pos:R:3:forces:R:3 energy=119.39413223612938 pbc="F F F"
Zr       0.00000000       0.00000000       0.00000000       0.00000000       0.00000000     -91.59442902
Zr       0.00000000       0.00000000       0.81515152       0.00000000       0.00000000      91.59442902
2
Properties=species:S:1:pos:R:3:forces:R:3 energy=113.82439976651874 pbc="F F F"
Zr       0.00000000       0.00000000       0.00000000       0.00000000       0.00000000    -101.01325226
Zr       0.00000000       0.00000000       0.87474747       0.00000000       0.00000000     101.01325226
2
Properties=species:S:1:pos:R:3:forces:R:3 energy=106.7686520531116 pbc="F F F"
Zr       0.00000000       0.00000000       0.00000000       0.00000000       0.00000000    -139.53041077
Zr       0.00000000       0.00000000       0.93434343       0.00000000       0.00000000     139.53041077
2
Properties=species:S:1:pos:R:3:forces:R:3 energy=96.94473886536714 pbc="F F F"
Zr       0.00000000       0.00000000       0.00000000       0.00000000       0.00000000    -190.49598694
Zr       0.00000000       0.00000000       0.99393939       0.00000000       0.00000000     190.49598694
2
Properties=species:S:1:pos:R:3:forces:R:3 energy=84.20588594297142 pbc="F F F"
Zr       0.00000000       0.00000000       0.00000000       0.00000000       0.00000000    -234.42385864
Zr       0.00000000       0.00000000       1.05353535       0.00000000       0.00000000     234.42385864
2
Properties=species:S:1:pos:R:3:forces:R:3 energy=69.44637279124747 pbc="F F F"
Zr       0.00000000       0.00000000       0.00000000       0.00000000       0.00000000    -256.34515381
Zr       0.00000000       0.00000000       1.11313131       0.00000000       0.00000000     256.34515381
2
Properties=species:S:1:pos:R:3:forces:R:3 energy=54.21653820599763 pbc="F F F"
Zr       0.00000000       0.00000000       0.00000000       0.00000000       0.00000000    -250.27624512
Zr       0.00000000       0.00000000       1.17272727       0.00000000       0.00000000     250.27624512
2
Properties=species:S:1:pos:R:3:forces:R:3 energy=40.05514719152034 pbc="F F F"
Zr       0.00000000       0.00000000       0.00000000       0.00000000       0.00000000    -222.32394409
Zr       0.00000000       0.00000000       1.23232323       0.00000000       0.00000000     222.32394409
2
Properties=species:S:1:pos:R:3:forces:R:3 energy=27.88403286217341 pbc="F F F"
Zr       0.00000000       0.00000000       0.00000000       0.00000000       0.00000000    -185.96664429
Zr       0.00000000       0.00000000       1.29191919       0.00000000       0.00000000     185.96664429
2
Properties=species:S:1:pos:R:3:forces:R:3 energy=17.80888719743896 pbc="F F F"
Zr       0.00000000       0.00000000       0.00000000       0.00000000       0.00000000    -153.12901306
Zr       0.00000000       0.00000000       1.35151515       0.00000000       0.00000000     153.12901306
2
Properties=species:S:1:pos:R:3:forces:R:3 energy=9.577305113054397 pbc="F F F"
Zr       0.00000000       0.00000000       0.00000000       0.00000000       0.00000000    -122.86822510
Zr       0.00000000       0.00000000       1.41111111       0.00000000       0.00000000     122.86822510
2
Properties=species:S:1:pos:R:3:forces:R:3 energy=3.2086186487935406 pbc="F F F"
Zr       0.00000000       0.00000000       0.00000000       0.00000000       0.00000000     -90.98812866
Zr       0.00000000       0.00000000       1.47070707       0.00000000       0.00000000      90.98812866
2
Properties=species:S:1:pos:R:3:forces:R:3 energy=-1.3567216450499844 pbc="F F F"
Zr       0.00000000       0.00000000       0.00000000       0.00000000       0.00000000     -62.99544525
Zr       0.00000000       0.00000000       1.53030303       0.00000000       0.00000000      62.99544525
2
Properties=species:S:1:pos:R:3:forces:R:3 energy=-4.3250924200923695 pbc="F F F"
Zr       0.00000000       0.00000000       0.00000000       0.00000000       0.00000000     -36.64483643
Zr       0.00000000       0.00000000       1.58989899       0.00000000       0.00000000      36.64483643
2
Properties=species:S:1:pos:R:3:forces:R:3 energy=-5.807740361213967 pbc="F F F"
Zr       0.00000000       0.00000000       0.00000000       0.00000000       0.00000000     -14.63840485
Zr       0.00000000       0.00000000       1.64949495       0.00000000       0.00000000      14.63840485
2
Properties=species:S:1:pos:R:3:forces:R:3 energy=-6.304939698129994 pbc="F F F"
Zr       0.00000000       0.00000000       0.00000000       0.00000000       0.00000000      -4.03615284
Zr       0.00000000       0.00000000       1.70909091       0.00000000       0.00000000       4.03615284
2
Properties=species:S:1:pos:R:3:forces:R:3 energy=-6.465184948558817 pbc="F F F"
Zr       0.00000000       0.00000000       0.00000000       0.00000000       0.00000000      -2.17849135
Zr       0.00000000       0.00000000       1.76868687       0.00000000       0.00000000       2.17849135
2
Properties=species:S:1:pos:R:3:forces:R:3 energy=-6.603272847022172 pbc="F F F"
Zr       0.00000000       0.00000000       0.00000000       0.00000000       0.00000000      -2.45951080
Zr       0.00000000       0.00000000       1.82828283       0.00000000       0.00000000       2.45951080
2
Properties=species:S:1:pos:R:3:forces:R:3 energy=-6.7481848003901375 pbc="F F F"
Zr       0.00000000       0.00000000       0.00000000       0.00000000       0.00000000      -2.30980563
Zr       0.00000000       0.00000000       1.88787879       0.00000000       0.00000000       2.30980563
2
Properties=species:S:1:pos:R:3:forces:R:3 energy=-6.8711162403500765 pbc="F F F"
Zr       0.00000000       0.00000000       0.00000000       0.00000000       0.00000000      -1.78350317
Zr       0.00000000       0.00000000       1.94747475       0.00000000       0.00000000       1.78350317
2
Properties=species:S:1:pos:R:3:forces:R:3 energy=-6.959372153841107 pbc="F F F"
Zr       0.00000000       0.00000000       0.00000000       0.00000000       0.00000000      -1.18054628
Zr       0.00000000       0.00000000       2.00707071       0.00000000       0.00000000       1.18054628
2
Properties=species:S:1:pos:R:3:forces:R:3 energy=-7.012914579288093 pbc="F F F"
Zr       0.00000000       0.00000000       0.00000000       0.00000000       0.00000000      -0.62925911
Zr       0.00000000       0.00000000       2.06666667       0.00000000       0.00000000       0.62925911
2
Properties=species:S:1:pos:R:3:forces:R:3 energy=-7.036062599964088 pbc="F F F"
Zr       0.00000000       0.00000000       0.00000000       0.00000000       0.00000000      -0.16224682
Zr       0.00000000       0.00000000       2.12626263       0.00000000       0.00000000       0.16224682
2
Properties=species:S:1:pos:R:3:forces:R:3 energy=-7.033991971110977 pbc="F F F"
Zr       0.00000000       0.00000000       0.00000000       0.00000000       0.00000000       0.21732453
Zr       0.00000000       0.00000000       2.18585859       0.00000000       0.00000000      -0.21732453
2
Properties=species:S:1:pos:R:3:forces:R:3 energy=-7.011849105814392 pbc="F F F"
Zr       0.00000000       0.00000000       0.00000000       0.00000000       0.00000000       0.51193780
Zr       0.00000000       0.00000000       2.24545455       0.00000000       0.00000000      -0.51193780
2
Properties=species:S:1:pos:R:3:forces:R:3 energy=-6.974556211668914 pbc="F F F"
Zr       0.00000000       0.00000000       0.00000000       0.00000000       0.00000000       0.72687870
Zr       0.00000000       0.00000000       2.30505051       0.00000000       0.00000000      -0.72687870
2
Properties=species:S:1:pos:R:3:forces:R:3 energy=-6.926670832892672 pbc="F F F"
Zr       0.00000000       0.00000000       0.00000000       0.00000000       0.00000000       0.86810410
Zr       0.00000000       0.00000000       2.36464646       0.00000000       0.00000000      -0.86810410
2
Properties=species:S:1:pos:R:3:forces:R:3 energy=-6.872523418519545 pbc="F F F"
Zr       0.00000000       0.00000000       0.00000000       0.00000000       0.00000000       0.93663335
Zr       0.00000000       0.00000000       2.42424242       0.00000000       0.00000000      -0.93663335
2
Properties=species:S:1:pos:R:3:forces:R:3 energy=-6.816582289566852 pbc="F F F"
Zr       0.00000000       0.00000000       0.00000000       0.00000000       0.00000000       0.92723894
Zr       0.00000000       0.00000000       2.48383838       0.00000000       0.00000000      -0.92723894
2
Properties=species:S:1:pos:R:3:forces:R:3 energy=-6.763609789541598 pbc="F F F"
Zr       0.00000000       0.00000000       0.00000000       0.00000000       0.00000000       0.83754367
Zr       0.00000000       0.00000000       2.54343434       0.00000000       0.00000000      -0.83754367
2
Properties=species:S:1:pos:R:3:forces:R:3 energy=-6.718095673200117 pbc="F F F"
Zr       0.00000000       0.00000000       0.00000000       0.00000000       0.00000000       0.68103999
Zr       0.00000000       0.00000000       2.60303030       0.00000000       0.00000000      -0.68103999
2
Properties=species:S:1:pos:R:3:forces:R:3 energy=-6.683080308471951 pbc="F F F"
Zr       0.00000000       0.00000000       0.00000000       0.00000000       0.00000000       0.49256918
Zr       0.00000000       0.00000000       2.66262626       0.00000000       0.00000000      -0.49256918
2
Properties=species:S:1:pos:R:3:forces:R:3 energy=-6.659033910429863 pbc="F F F"
Zr       0.00000000       0.00000000       0.00000000       0.00000000       0.00000000       0.32182479
Zr       0.00000000       0.00000000       2.72222222       0.00000000       0.00000000      -0.32182479
2
Properties=species:S:1:pos:R:3:forces:R:3 energy=-6.6433611542005515 pbc="F F F"
Zr       0.00000000       0.00000000       0.00000000       0.00000000       0.00000000       0.21911120
Zr       0.00000000       0.00000000       2.78181818       0.00000000       0.00000000      -0.21911120
2
Properties=species:S:1:pos:R:3:forces:R:3 energy=-6.630828472128586 pbc="F F F"
Zr       0.00000000       0.00000000       0.00000000       0.00000000       0.00000000       0.22074409
Zr       0.00000000       0.00000000       2.84141414       0.00000000       0.00000000      -0.22074409
2
Properties=species:S:1:pos:R:3:forces:R:3 energy=-6.614700464495702 pbc="F F F"
Zr       0.00000000       0.00000000       0.00000000       0.00000000       0.00000000       0.33980826
Zr       0.00000000       0.00000000       2.90101010       0.00000000       0.00000000      -0.33980826
2
Properties=species:S:1:pos:R:3:forces:R:3 energy=-6.588214042013086 pbc="F F F"
Zr       0.00000000       0.00000000       0.00000000       0.00000000       0.00000000       0.56451976
Zr       0.00000000       0.00000000       2.96060606       0.00000000       0.00000000      -0.56451976
2
Properties=species:S:1:pos:R:3:forces:R:3 energy=-6.545942224188986 pbc="F F F"
Zr       0.00000000       0.00000000       0.00000000       0.00000000       0.00000000       0.86291695
Zr       0.00000000       0.00000000       3.02020202       0.00000000       0.00000000      -0.86291695
2
Properties=species:S:1:pos:R:3:forces:R:3 energy=-6.484763256167865 pbc="F F F"
Zr       0.00000000       0.00000000       0.00000000       0.00000000       0.00000000       1.19133794
Zr       0.00000000       0.00000000       3.07979798       0.00000000       0.00000000      -1.19133794
2
Properties=species:S:1:pos:R:3:forces:R:3 energy=-6.404253944407008 pbc="F F F"
Zr       0.00000000       0.00000000       0.00000000       0.00000000       0.00000000       1.50447404
Zr       0.00000000       0.00000000       3.13939394       0.00000000       0.00000000      -1.50447404
2
Properties=species:S:1:pos:R:3:forces:R:3 energy=-6.306489503442821 pbc="F F F"
Zr       0.00000000       0.00000000       0.00000000       0.00000000       0.00000000       1.76539850
Zr       0.00000000       0.00000000       3.19898990       0.00000000       0.00000000      -1.76539850
2
Properties=species:S:1:pos:R:3:forces:R:3 energy=-6.19530214676796 pbc="F F F"
Zr       0.00000000       0.00000000       0.00000000       0.00000000       0.00000000       1.95289636
Zr       0.00000000       0.00000000       3.25858586       0.00000000       0.00000000      -1.95289636
2
Properties=species:S:1:pos:R:3:forces:R:3 energy=-6.075310618154798 pbc="F F F"
Zr       0.00000000       0.00000000       0.00000000       0.00000000       0.00000000       2.06048441
Zr       0.00000000       0.00000000       3.31818182       0.00000000       0.00000000      -2.06048441
2
Properties=species:S:1:pos:R:3:forces:R:3 energy=-5.951360167144488 pbc="F F F"
Zr       0.00000000       0.00000000       0.00000000       0.00000000       0.00000000       2.08473349
Zr       0.00000000       0.00000000       3.37777778       0.00000000       0.00000000      -2.08473349
2
Properties=species:S:1:pos:R:3:forces:R:3 energy=-5.828634279139677 pbc="F F F"
Zr       0.00000000       0.00000000       0.00000000       0.00000000       0.00000000       2.01828575
Zr       0.00000000       0.00000000       3.43737374       0.00000000       0.00000000      -2.01828575
2
Properties=species:S:1:pos:R:3:forces:R:3 energy=-5.712597050775561 pbc="F F F"
Zr       0.00000000       0.00000000       0.00000000       0.00000000       0.00000000       1.86199772
Zr       0.00000000       0.00000000       3.49696970       0.00000000       0.00000000      -1.86199772
2
Properties=species:S:1:pos:R:3:forces:R:3 energy=-5.608077195229698 pbc="F F F"
Zr       0.00000000       0.00000000       0.00000000       0.00000000       0.00000000       1.63678575
Zr       0.00000000       0.00000000       3.55656566       0.00000000       0.00000000      -1.63678575
2
Properties=species:S:1:pos:R:3:forces:R:3 energy=-5.518174659896976 pbc="F F F"
Zr       0.00000000       0.00000000       0.00000000       0.00000000       0.00000000       1.37789261
Zr       0.00000000       0.00000000       3.61616162       0.00000000       0.00000000      -1.37789261
2
Properties=species:S:1:pos:R:3:forces:R:3 energy=-5.443775635469651 pbc="F F F"
Zr       0.00000000       0.00000000       0.00000000       0.00000000       0.00000000       1.12224460
Zr       0.00000000       0.00000000       3.67575758       0.00000000       0.00000000      -1.12224460
2
Properties=species:S:1:pos:R:3:forces:R:3 energy=-5.3837459606061175 pbc="F F F"
Zr       0.00000000       0.00000000       0.00000000       0.00000000       0.00000000       0.89975786
Zr       0.00000000       0.00000000       3.73535354       0.00000000       0.00000000      -0.89975786
2
Properties=species:S:1:pos:R:3:forces:R:3 energy=-5.3354904740117 pbc="F F F"
Zr       0.00000000       0.00000000       0.00000000       0.00000000       0.00000000       0.72926176
Zr       0.00000000       0.00000000       3.79494949       0.00000000       0.00000000      -0.72926176
2
Properties=species:S:1:pos:R:3:forces:R:3 energy=-5.295648791731092 pbc="F F F"
Zr       0.00000000       0.00000000       0.00000000       0.00000000       0.00000000       0.61756855
Zr       0.00000000       0.00000000       3.85454545       0.00000000       0.00000000      -0.61756855
2
Properties=species:S:1:pos:R:3:forces:R:3 energy=-5.260782659821405 pbc="F F F"
Zr       0.00000000       0.00000000       0.00000000       0.00000000       0.00000000       0.56092358
Zr       0.00000000       0.00000000       3.91414141       0.00000000       0.00000000      -0.56092358
2
Properties=species:S:1:pos:R:3:forces:R:3 energy=-5.227915662085274 pbc="F F F"
Zr       0.00000000       0.00000000       0.00000000       0.00000000       0.00000000       0.54820496
Zr       0.00000000       0.00000000       3.97373737       0.00000000       0.00000000      -0.54820496
2
Properties=species:S:1:pos:R:3:forces:R:3 energy=-5.19485805625011 pbc="F F F"
Zr       0.00000000       0.00000000       0.00000000       0.00000000       0.00000000       0.56484586
Zr       0.00000000       0.00000000       4.03333333       0.00000000       0.00000000      -0.56484586
2
Properties=species:S:1:pos:R:3:forces:R:3 energy=-5.160297074933189 pbc="F F F"
Zr       0.00000000       0.00000000       0.00000000       0.00000000       0.00000000       0.59636790
Zr       0.00000000       0.00000000       4.09292929       0.00000000       0.00000000      -0.59636790
2
Properties=species:S:1:pos:R:3:forces:R:3 energy=-5.123720826437466 pbc="F F F"
Zr       0.00000000       0.00000000       0.00000000       0.00000000       0.00000000       0.63077211
Zr       0.00000000       0.00000000       4.15252525       0.00000000       0.00000000      -0.63077211
2
Properties=species:S:1:pos:R:3:forces:R:3 energy=-5.085227800642783 pbc="F F F"
Zr       0.00000000       0.00000000       0.00000000       0.00000000       0.00000000       0.65959078
Zr       0.00000000       0.00000000       4.21212121       0.00000000       0.00000000      -0.65959078
2
Properties=species:S:1:pos:R:3:forces:R:3 energy=-5.045313398014455 pbc="F F F"
Zr       0.00000000       0.00000000       0.00000000       0.00000000       0.00000000       0.67788094
Zr       0.00000000       0.00000000       4.27171717       0.00000000       0.00000000      -0.67788094
2
Properties=species:S:1:pos:R:3:forces:R:3 energy=-5.004681190787644 pbc="F F F"
Zr       0.00000000       0.00000000       0.00000000       0.00000000       0.00000000       0.68358761
Zr       0.00000000       0.00000000       4.33131313       0.00000000       0.00000000      -0.68358761
2
Properties=species:S:1:pos:R:3:forces:R:3 energy=-4.964086959202757 pbc="F F F"
Zr       0.00000000       0.00000000       0.00000000       0.00000000       0.00000000       0.67668730
Zr       0.00000000       0.00000000       4.39090909       0.00000000       0.00000000      -0.67668730
2
Properties=species:S:1:pos:R:3:forces:R:3 energy=-4.924253025543726 pbc="F F F"
Zr       0.00000000       0.00000000       0.00000000       0.00000000       0.00000000       0.65831792
Zr       0.00000000       0.00000000       4.45050505       0.00000000       0.00000000      -0.65831792
2
Properties=species:S:1:pos:R:3:forces:R:3 energy=-4.885817245233361 pbc="F F F"
Zr       0.00000000       0.00000000       0.00000000       0.00000000       0.00000000       0.63006288
Zr       0.00000000       0.00000000       4.51010101       0.00000000       0.00000000      -0.63006288
2
Properties=species:S:1:pos:R:3:forces:R:3 energy=-4.84932091484201 pbc="F F F"
Zr       0.00000000       0.00000000       0.00000000       0.00000000       0.00000000       0.59341496
Zr       0.00000000       0.00000000       4.56969697       0.00000000       0.00000000      -0.59341496
2
Properties=species:S:1:pos:R:3:forces:R:3 energy=-4.815229008324455 pbc="F F F"
Zr       0.00000000       0.00000000       0.00000000       0.00000000       0.00000000       0.54956186
Zr       0.00000000       0.00000000       4.62929293       0.00000000       0.00000000      -0.54956186
2
Properties=species:S:1:pos:R:3:forces:R:3 energy=-4.7839423910523475 pbc="F F F"
Zr       0.00000000       0.00000000       0.00000000       0.00000000       0.00000000       0.49946806
Zr       0.00000000       0.00000000       4.68888889       0.00000000       0.00000000      -0.49946806
2
Properties=species:S:1:pos:R:3:forces:R:3 energy=-4.755799746169769 pbc="F F F"
Zr       0.00000000       0.00000000       0.00000000       0.00000000       0.00000000       0.44419315
Zr       0.00000000       0.00000000       4.74848485       0.00000000       0.00000000      -0.44419315
2
Properties=species:S:1:pos:R:3:forces:R:3 energy=-4.731070155938804 pbc="F F F"
Zr       0.00000000       0.00000000       0.00000000       0.00000000       0.00000000       0.38531804
Zr       0.00000000       0.00000000       4.80808081       0.00000000       0.00000000      -0.38531804
2
Properties=species:S:1:pos:R:3:forces:R:3 energy=-4.709899415545629 pbc="F F F"
Zr       0.00000000       0.00000000       0.00000000       0.00000000       0.00000000       0.32515022
Zr       0.00000000       0.00000000       4.86767677       0.00000000       0.00000000      -0.32515022
2
Properties=species:S:1:pos:R:3:forces:R:3 energy=-4.692281061739301 pbc="F F F"
Zr       0.00000000       0.00000000       0.00000000       0.00000000       0.00000000       0.26665434
Zr       0.00000000       0.00000000       4.92727273       0.00000000       0.00000000      -0.26665434
2
Properties=species:S:1:pos:R:3:forces:R:3 energy=-4.67802013320773 pbc="F F F"
Zr       0.00000000       0.00000000       0.00000000       0.00000000       0.00000000       0.21298847
Zr       0.00000000       0.00000000       4.98686869       0.00000000       0.00000000      -0.21298847
2
Properties=species:S:1:pos:R:3:forces:R:3 energy=-4.666744494292239 pbc="F F F"
Zr       0.00000000       0.00000000       0.00000000       0.00000000       0.00000000       0.16688520
Zr       0.00000000       0.00000000       5.04646465       0.00000000       0.00000000      -0.16688520
2
Properties=species:S:1:pos:R:3:forces:R:3 energy=-4.657944572526632 pbc="F F F"
Zr       0.00000000       0.00000000       0.00000000       0.00000000       0.00000000       0.13005851
Zr       0.00000000       0.00000000       5.10606061       0.00000000       0.00000000      -0.13005851
2
Properties=species:S:1:pos:R:3:forces:R:3 energy=-4.651048336112636 pbc="F F F"
Zr       0.00000000       0.00000000       0.00000000       0.00000000       0.00000000       0.10294168
Zr       0.00000000       0.00000000       5.16565657       0.00000000       0.00000000      -0.10294168
2
Properties=species:S:1:pos:R:3:forces:R:3 energy=-4.645496851266633 pbc="F F F"
Zr       0.00000000       0.00000000       0.00000000       0.00000000       0.00000000       0.08471376
Zr       0.00000000       0.00000000       5.22525253       0.00000000       0.00000000      -0.08471376
2
Properties=species:S:1:pos:R:3:forces:R:3 energy=-4.640808986353362 pbc="F F F"
Zr       0.00000000       0.00000000       0.00000000       0.00000000       0.00000000       0.07362303
Zr       0.00000000       0.00000000       5.28484848       0.00000000       0.00000000      -0.07362303
2
Properties=species:S:1:pos:R:3:forces:R:3 energy=-4.636623373555839 pbc="F F F"
Zr       0.00000000       0.00000000       0.00000000       0.00000000       0.00000000       0.06748094
Zr       0.00000000       0.00000000       5.34444444       0.00000000       0.00000000      -0.06748094
2
Properties=species:S:1:pos:R:3:forces:R:3 energy=-4.632710610236493 pbc="F F F"
Zr       0.00000000       0.00000000       0.00000000       0.00000000       0.00000000       0.06413433
Zr       0.00000000       0.00000000       5.40404040       0.00000000       0.00000000      -0.06413433
2
Properties=species:S:1:pos:R:3:forces:R:3 energy=-4.628958963325893 pbc="F F F"
Zr       0.00000000       0.00000000       0.00000000       0.00000000       0.00000000       0.06181091
Zr       0.00000000       0.00000000       5.46363636       0.00000000       0.00000000      -0.06181091
2
Properties=species:S:1:pos:R:3:forces:R:3 energy=-4.625347561903753 pbc="F F F"
Zr       0.00000000       0.00000000       0.00000000       0.00000000       0.00000000       0.05930413
Zr       0.00000000       0.00000000       5.52323232       0.00000000       0.00000000      -0.05930413
2
Properties=species:S:1:pos:R:3:forces:R:3 energy=-4.621906864064317 pbc="F F F"
Zr       0.00000000       0.00000000       0.00000000       0.00000000       0.00000000       0.05600680
Zr       0.00000000       0.00000000       5.58282828       0.00000000       0.00000000      -0.05600680
2
Properties=species:S:1:pos:R:3:forces:R:3 energy=-4.618689888295749 pbc="F F F"
Zr       0.00000000       0.00000000       0.00000000       0.00000000       0.00000000       0.05181062
Zr       0.00000000       0.00000000       5.64242424       0.00000000       0.00000000      -0.05181062
2
Properties=species:S:1:pos:R:3:forces:R:3 energy=-4.615743745802649 pbc="F F F"
Zr       0.00000000       0.00000000       0.00000000       0.00000000       0.00000000       0.04696285
Zr       0.00000000       0.00000000       5.70202020       0.00000000       0.00000000      -0.04696285
2
Properties=species:S:1:pos:R:3:forces:R:3 energy=-4.613096740560197 pbc="F F F"
Zr       0.00000000       0.00000000       0.00000000       0.00000000       0.00000000       0.04190119
Zr       0.00000000       0.00000000       5.76161616       0.00000000       0.00000000      -0.04190119
2
Properties=species:S:1:pos:R:3:forces:R:3 energy=-4.610744474512302 pbc="F F F"
Zr       0.00000000       0.00000000       0.00000000       0.00000000       0.00000000       0.03711451
Zr       0.00000000       0.00000000       5.82121212       0.00000000       0.00000000      -0.03711451
2
Properties=species:S:1:pos:R:3:forces:R:3 energy=-4.608659587055385 pbc="F F F"
Zr       0.00000000       0.00000000       0.00000000       0.00000000       0.00000000       0.03303331
Zr       0.00000000       0.00000000       5.88080808       0.00000000       0.00000000      -0.03303331
2
Properties=species:S:1:pos:R:3:forces:R:3 energy=-4.606786389452394 pbc="F F F"
Zr       0.00000000       0.00000000       0.00000000       0.00000000       0.00000000       0.02997999
Zr       0.00000000       0.00000000       5.94040404       0.00000000       0.00000000      -0.02997999
2
Properties=species:S:1:pos:R:3:forces:R:3 energy=-4.6050610630558495 pbc="F F F"
Zr       0.00000000       0.00000000       0.00000000       0.00000000       0.00000000       0.02814879
Zr       0.00000000       0.00000000       6.00000000       0.00000000       0.00000000      -0.02814879
