2
Properties=species:S:1:pos:R:3:forces:R:3 energy=21826.82215461041 pbc="F F F"
As       0.00000000       0.00000000       0.00000000       0.00000000       0.00000000 -501281.87500000
As       0.00000000       0.00000000       0.10000000       0.00000000       0.00000000  501281.87500000
2
Properties=species:S:1:pos:R:3:forces:R:3 energy=6760.045299141659 pbc="F F F"
As       0.00000000       0.00000000       0.00000000       0.00000000       0.00000000 -115440.89062500
As       0.00000000       0.00000000       0.15959596       0.00000000       0.00000000  115440.89062500
2
Properties=species:S:1:pos:R:3:forces:R:3 energy=2708.151744454159 pbc="F F F"
As       0.00000000       0.00000000       0.00000000       0.00000000       0.00000000  -37628.86718750
As       0.00000000       0.00000000       0.21919192       0.00000000       0.00000000   37628.86718750
2
Properties=species:S:1:pos:R:3:forces:R:3 energy=1262.122935860409 pbc="F F F"
As       0.00000000       0.00000000       0.00000000       0.00000000       0.00000000  -14952.36328125
As       0.00000000       0.00000000       0.27878788       0.00000000       0.00000000   14952.36328125
2
Properties=species:S:1:pos:R:3:forces:R:3 energy=653.9102893792018 pbc="F F F"
As       0.00000000       0.00000000       0.00000000       0.00000000       0.00000000   -6709.71875000
As       0.00000000       0.00000000       0.33838384       0.00000000       0.00000000    6709.71875000
2
Properties=species:S:1:pos:R:3:forces:R:3 energy=370.8354297695646 pbc="F F F"
As       0.00000000       0.00000000       0.00000000       0.00000000       0.00000000   -3252.05859375
As       0.00000000       0.00000000       0.39797980       0.00000000       0.00000000    3252.05859375
2
Properties=species:S:1:pos:R:3:forces:R:3 energy=230.38134348169277 pbc="F F F"
As       0.00000000       0.00000000       0.00000000       0.00000000       0.00000000   -1654.48010254
As       0.00000000       0.00000000       0.45757576       0.00000000       0.00000000    1654.48010254
2
Properties=species:S:1:pos:R:3:forces:R:3 energy=157.96677747649977 pbc="F F F"
As       0.00000000       0.00000000       0.00000000       0.00000000       0.00000000    -863.94195557
As       0.00000000       0.00000000       0.51717172       0.00000000       0.00000000     863.94195557
2
Properties=species:S:1:pos:R:3:forces:R:3 energy=119.99302265387588 pbc="F F F"
As       0.00000000       0.00000000       0.00000000       0.00000000       0.00000000    -453.55715942
As       0.00000000       0.00000000       0.57676768       0.00000000       0.00000000     453.55715942
2
Properties=species:S:1:pos:R:3:forces:R:3 energy=100.20811827843355 pbc="F F F"
As       0.00000000       0.00000000       0.00000000       0.00000000       0.00000000    -232.65631104
As       0.00000000       0.00000000       0.63636364       0.00000000       0.00000000     232.65631104
2
Properties=species:S:1:pos:R:3:forces:R:3 energy=90.23047256913685 pbc="F F F"
As       0.00000000       0.00000000       0.00000000       0.00000000       0.00000000    -115.57363892
As       0.00000000       0.00000000       0.69595960       0.00000000       0.00000000     115.57363892
2
Properties=species:S:1:pos:R:3:forces:R:3 energy=85.10673930205482 pbc="F F F"
As       0.00000000       0.00000000       0.00000000       0.00000000       0.00000000     -65.69702148
As       0.00000000       0.00000000       0.75555556       0.00000000       0.00000000      65.69702148
2
Properties=species:S:1:pos:R:3:forces:R:3 energy=81.48040453498268 pbc="F F F"
As       0.00000000       0.00000000       0.00000000       0.00000000       0.00000000     -62.06032562
As       0.00000000       0.00000000       0.81515152       0.00000000       0.00000000      62.06032562
2
Properties=species:S:1:pos:R:3:forces:R:3 energy=77.19166301441841 pbc="F F F"
As       0.00000000       0.00000000       0.00000000       0.00000000       0.00000000     -84.52484131
As       0.00000000       0.00000000       0.87474747       0.00000000       0.00000000      84.52484131
2
Properties=species:S:1:pos:R:3:forces:R:3 energy=71.27617459375749 pbc="F F F"
As       0.00000000       0.00000000       0.00000000       0.00000000       0.00000000    -113.63504028
As       0.00000000       0.00000000       0.93434343       0.00000000       0.00000000     113.63504028
2
Properties=species:S:1:pos:R:3:forces:R:3 energy=63.83217541717293 pbc="F F F"
As       0.00000000       0.00000000       0.00000000       0.00000000       0.00000000    -133.69232178
As       0.00000000       0.00000000       0.99393939       0.00000000       0.00000000     133.69232178
2
Properties=species:S:1:pos:R:3:forces:R:3 energy=55.66129369249236 pbc="F F F"
As       0.00000000       0.00000000       0.00000000       0.00000000       0.00000000    -138.28842163
As       0.00000000       0.00000000       1.05353535       0.00000000       0.00000000     138.28842163
2
Properties=species:S:1:pos:R:3:forces:R:3 energy=47.493212446617186 pbc="F F F"
As       0.00000000       0.00000000       0.00000000       0.00000000       0.00000000    -135.53080750
As       0.00000000       0.00000000       1.11313131       0.00000000       0.00000000     135.53080750
2
Properties=species:S:1:pos:R:3:forces:R:3 energy=39.500310343131545 pbc="F F F"
As       0.00000000       0.00000000       0.00000000       0.00000000       0.00000000    -132.74595642
As       0.00000000       0.00000000       1.17272727       0.00000000       0.00000000     132.74595642
2
Properties=species:S:1:pos:R:3:forces:R:3 energy=31.71374216665925 pbc="F F F"
As       0.00000000       0.00000000       0.00000000       0.00000000       0.00000000    -127.72779846
As       0.00000000       0.00000000       1.23232323       0.00000000       0.00000000     127.72779846
2
Properties=species:S:1:pos:R:3:forces:R:3 energy=24.408608802606164 pbc="F F F"
As       0.00000000       0.00000000       0.00000000       0.00000000       0.00000000    -116.29560852
As       0.00000000       0.00000000       1.29191919       0.00000000       0.00000000     116.29560852
2
Properties=species:S:1:pos:R:3:forces:R:3 energy=17.954752992513235 pbc="F F F"
As       0.00000000       0.00000000       0.00000000       0.00000000       0.00000000     -99.78324890
As       0.00000000       0.00000000       1.35151515       0.00000000       0.00000000      99.78324890
2
Properties=species:S:1:pos:R:3:forces:R:3 energy=12.53250334310776 pbc="F F F"
As       0.00000000       0.00000000       0.00000000       0.00000000       0.00000000     -82.37250519
As       0.00000000       0.00000000       1.41111111       0.00000000       0.00000000      82.37250519
2
Properties=species:S:1:pos:R:3:forces:R:3 energy=8.087525502158615 pbc="F F F"
As       0.00000000       0.00000000       0.00000000       0.00000000       0.00000000     -67.32699585
As       0.00000000       0.00000000       1.47070707       0.00000000       0.00000000      67.32699585
2
Properties=species:S:1:pos:R:3:forces:R:3 energy=4.448628090927903 pbc="F F F"
As       0.00000000       0.00000000       0.00000000       0.00000000       0.00000000     -55.18767548
As       0.00000000       0.00000000       1.53030303       0.00000000       0.00000000      55.18767548
2
Properties=species:S:1:pos:R:3:forces:R:3 energy=1.4770709626747873 pbc="F F F"
As       0.00000000       0.00000000       0.00000000       0.00000000       0.00000000     -44.71152115
As       0.00000000       0.00000000       1.58989899       0.00000000       0.00000000      44.71152115
2
Properties=species:S:1:pos:R:3:forces:R:3 energy=-0.8979295690689593 pbc="F F F"
As       0.00000000       0.00000000       0.00000000       0.00000000       0.00000000     -35.14757538
As       0.00000000       0.00000000       1.64949495       0.00000000       0.00000000      35.14757538
2
Properties=species:S:1:pos:R:3:forces:R:3 energy=-2.7357189739079697 pbc="F F F"
As       0.00000000       0.00000000       0.00000000       0.00000000       0.00000000     -26.76482391
As       0.00000000       0.00000000       1.70909091       0.00000000       0.00000000      26.76482391
2
Properties=species:S:1:pos:R:3:forces:R:3 energy=-4.118661501401175 pbc="F F F"
As       0.00000000       0.00000000       0.00000000       0.00000000       0.00000000     -19.90448570
As       0.00000000       0.00000000       1.76868687       0.00000000       0.00000000      19.90448570
2
Properties=species:S:1:pos:R:3:forces:R:3 energy=-5.1371026412728895 pbc="F F F"
As       0.00000000       0.00000000       0.00000000       0.00000000       0.00000000     -14.49398327
As       0.00000000       0.00000000       1.82828283       0.00000000       0.00000000      14.49398327
2
Properties=species:S:1:pos:R:3:forces:R:3 energy=-5.869515045153242 pbc="F F F"
As       0.00000000       0.00000000       0.00000000       0.00000000       0.00000000     -10.25691700
As       0.00000000       0.00000000       1.88787879       0.00000000       0.00000000      10.25691700
2
Properties=species:S:1:pos:R:3:forces:R:3 energy=-6.377642642706323 pbc="F F F"
As       0.00000000       0.00000000       0.00000000       0.00000000       0.00000000      -6.92810726
As       0.00000000       0.00000000       1.94747475       0.00000000       0.00000000       6.92810726
2
Properties=species:S:1:pos:R:3:forces:R:3 energy=-6.7092288590952 pbc="F F F"
As       0.00000000       0.00000000       0.00000000       0.00000000       0.00000000      -4.30259418
As       0.00000000       0.00000000       2.00707071       0.00000000       0.00000000       4.30259418
2
Properties=species:S:1:pos:R:3:forces:R:3 energy=-6.9013726360830425 pbc="F F F"
As       0.00000000       0.00000000       0.00000000       0.00000000       0.00000000      -2.22693467
As       0.00000000       0.00000000       2.06666667       0.00000000       0.00000000       2.22693467
2
Properties=species:S:1:pos:R:3:forces:R:3 energy=-6.983359347717104 pbc="F F F"
As       0.00000000       0.00000000       0.00000000       0.00000000       0.00000000      -0.59029102
As       0.00000000       0.00000000       2.12626263       0.00000000       0.00000000       0.59029102
2
Properties=species:S:1:pos:R:3:forces:R:3 energy=-6.978867198719641 pbc="F F F"
As       0.00000000       0.00000000       0.00000000       0.00000000       0.00000000       0.68650573
As       0.00000000       0.00000000       2.18585859       0.00000000       0.00000000      -0.68650573
2
Properties=species:S:1:pos:R:3:forces:R:3 energy=-6.907479252941816 pbc="F F F"
As       0.00000000       0.00000000       0.00000000       0.00000000       0.00000000       1.66365886
As       0.00000000       0.00000000       2.24545455       0.00000000       0.00000000      -1.66365886
2
Properties=species:S:1:pos:R:3:forces:R:3 energy=-6.785555555854771 pbc="F F F"
As       0.00000000       0.00000000       0.00000000       0.00000000       0.00000000       2.38965607
As       0.00000000       0.00000000       2.30505051       0.00000000       0.00000000      -2.38965607
2
Properties=species:S:1:pos:R:3:forces:R:3 energy=-6.626824984497607 pbc="F F F"
As       0.00000000       0.00000000       0.00000000       0.00000000       0.00000000       2.90540600
As       0.00000000       0.00000000       2.36464646       0.00000000       0.00000000      -2.90540600
2
Properties=species:S:1:pos:R:3:forces:R:3 energy=-6.442696555617444 pbc="F F F"
As       0.00000000       0.00000000       0.00000000       0.00000000       0.00000000       3.24784446
As       0.00000000       0.00000000       2.42424242       0.00000000       0.00000000      -3.24784446
2
Properties=species:S:1:pos:R:3:forces:R:3 energy=-6.242478373120574 pbc="F F F"
As       0.00000000       0.00000000       0.00000000       0.00000000       0.00000000       3.45060968
As       0.00000000       0.00000000       2.48383838       0.00000000       0.00000000      -3.45060968
2
Properties=species:S:1:pos:R:3:forces:R:3 energy=-6.0336360484696385 pbc="F F F"
As       0.00000000       0.00000000       0.00000000       0.00000000       0.00000000       3.54117155
As       0.00000000       0.00000000       2.54343434       0.00000000       0.00000000      -3.54117155
2
Properties=species:S:1:pos:R:3:forces:R:3 energy=-5.822225789200517 pbc="F F F"
As       0.00000000       0.00000000       0.00000000       0.00000000       0.00000000       3.53969598
As       0.00000000       0.00000000       2.60303030       0.00000000       0.00000000      -3.53969598
2
Properties=species:S:1:pos:R:3:forces:R:3 energy=-5.613230695831745 pbc="F F F"
As       0.00000000       0.00000000       0.00000000       0.00000000       0.00000000       3.46288300
As       0.00000000       0.00000000       2.66262626       0.00000000       0.00000000      -3.46288300
2
Properties=species:S:1:pos:R:3:forces:R:3 energy=-5.410615141811469 pbc="F F F"
As       0.00000000       0.00000000       0.00000000       0.00000000       0.00000000       3.32889390
As       0.00000000       0.00000000       2.72222222       0.00000000       0.00000000      -3.32889390
2
Properties=species:S:1:pos:R:3:forces:R:3 energy=-5.217191957538008 pbc="F F F"
As       0.00000000       0.00000000       0.00000000       0.00000000       0.00000000       3.15767241
As       0.00000000       0.00000000       2.78181818       0.00000000       0.00000000      -3.15767241
2
Properties=species:S:1:pos:R:3:forces:R:3 energy=-5.034627497850853 pbc="F F F"
As       0.00000000       0.00000000       0.00000000       0.00000000       0.00000000       2.96696353
As       0.00000000       0.00000000       2.84141414       0.00000000       0.00000000      -2.96696353
2
Properties=species:S:1:pos:R:3:forces:R:3 energy=-4.863704440837598 pbc="F F F"
As       0.00000000       0.00000000       0.00000000       0.00000000       0.00000000       2.76837516
As       0.00000000       0.00000000       2.90101010       0.00000000       0.00000000      -2.76837516
2
Properties=species:S:1:pos:R:3:forces:R:3 energy=-4.704717117995853 pbc="F F F"
As       0.00000000       0.00000000       0.00000000       0.00000000       0.00000000       2.56681657
As       0.00000000       0.00000000       2.96060606       0.00000000       0.00000000      -2.56681657
2
Properties=species:S:1:pos:R:3:forces:R:3 energy=-4.557801456106407 pbc="F F F"
As       0.00000000       0.00000000       0.00000000       0.00000000       0.00000000       2.36323619
As       0.00000000       0.00000000       3.02020202       0.00000000       0.00000000      -2.36323619
2
Properties=species:S:1:pos:R:3:forces:R:3 energy=-4.423070517568883 pbc="F F F"
As       0.00000000       0.00000000       0.00000000       0.00000000       0.00000000       2.15808249
As       0.00000000       0.00000000       3.07979798       0.00000000       0.00000000      -2.15808249
2
Properties=species:S:1:pos:R:3:forces:R:3 energy=-4.300571319025776 pbc="F F F"
As       0.00000000       0.00000000       0.00000000       0.00000000       0.00000000       1.95323622
As       0.00000000       0.00000000       3.13939394       0.00000000       0.00000000      -1.95323622
2
Properties=species:S:1:pos:R:3:forces:R:3 energy=-4.1901823784787595 pbc="F F F"
As       0.00000000       0.00000000       0.00000000       0.00000000       0.00000000       1.75235784
As       0.00000000       0.00000000       3.19898990       0.00000000       0.00000000      -1.75235784
2
Properties=species:S:1:pos:R:3:forces:R:3 energy=-4.091528130956415 pbc="F F F"
As       0.00000000       0.00000000       0.00000000       0.00000000       0.00000000       1.56026292
As       0.00000000       0.00000000       3.25858586       0.00000000       0.00000000      -1.56026292
2
Properties=species:S:1:pos:R:3:forces:R:3 energy=-4.003947347121937 pbc="F F F"
As       0.00000000       0.00000000       0.00000000       0.00000000       0.00000000       1.38141239
As       0.00000000       0.00000000       3.31818182       0.00000000       0.00000000      -1.38141239
2
Properties=species:S:1:pos:R:3:forces:R:3 energy=-3.9265553485848947 pbc="F F F"
As       0.00000000       0.00000000       0.00000000       0.00000000       0.00000000       1.21862102
As       0.00000000       0.00000000       3.37777778       0.00000000       0.00000000      -1.21862102
2
Properties=species:S:1:pos:R:3:forces:R:3 energy=-3.8583621264355314 pbc="F F F"
As       0.00000000       0.00000000       0.00000000       0.00000000       0.00000000       1.07272220
As       0.00000000       0.00000000       3.43737374       0.00000000       0.00000000      -1.07272220
2
Properties=species:S:1:pos:R:3:forces:R:3 energy=-3.7983731557938434 pbc="F F F"
As       0.00000000       0.00000000       0.00000000       0.00000000       0.00000000       0.94302595
As       0.00000000       0.00000000       3.49696970       0.00000000       0.00000000      -0.94302595
2
Properties=species:S:1:pos:R:3:forces:R:3 energy=-3.745667465399132 pbc="F F F"
As       0.00000000       0.00000000       0.00000000       0.00000000       0.00000000       0.82805276
As       0.00000000       0.00000000       3.55656566       0.00000000       0.00000000      -0.82805276
2
Properties=species:S:1:pos:R:3:forces:R:3 energy=-3.6994172036127506 pbc="F F F"
As       0.00000000       0.00000000       0.00000000       0.00000000       0.00000000       0.72611970
As       0.00000000       0.00000000       3.61616162       0.00000000       0.00000000      -0.72611970
2
Properties=species:S:1:pos:R:3:forces:R:3 energy=-3.6588918577646856 pbc="F F F"
As       0.00000000       0.00000000       0.00000000       0.00000000       0.00000000       0.63568199
As       0.00000000       0.00000000       3.67575758       0.00000000       0.00000000      -0.63568199
2
Properties=species:S:1:pos:R:3:forces:R:3 energy=-3.62344662149642 pbc="F F F"
As       0.00000000       0.00000000       0.00000000       0.00000000       0.00000000       0.55543739
As       0.00000000       0.00000000       3.73535354       0.00000000       0.00000000      -0.55543739
2
Properties=species:S:1:pos:R:3:forces:R:3 energy=-3.5925070139307897 pbc="F F F"
As       0.00000000       0.00000000       0.00000000       0.00000000       0.00000000       0.48430571
As       0.00000000       0.00000000       3.79494949       0.00000000       0.00000000      -0.48430571
2
Properties=species:S:1:pos:R:3:forces:R:3 energy=-3.5655587267074904 pbc="F F F"
As       0.00000000       0.00000000       0.00000000       0.00000000       0.00000000       0.42135546
As       0.00000000       0.00000000       3.85454545       0.00000000       0.00000000      -0.42135546
2
Properties=species:S:1:pos:R:3:forces:R:3 energy=-3.542138741475108 pbc="F F F"
As       0.00000000       0.00000000       0.00000000       0.00000000       0.00000000       0.36576992
As       0.00000000       0.00000000       3.91414141       0.00000000       0.00000000      -0.36576992
2
Properties=species:S:1:pos:R:3:forces:R:3 energy=-3.5218303841215 pbc="F F F"
As       0.00000000       0.00000000       0.00000000       0.00000000       0.00000000       0.31680757
As       0.00000000       0.00000000       3.97373737       0.00000000       0.00000000      -0.31680757
2
Properties=species:S:1:pos:R:3:forces:R:3 energy=-3.5042591092671014 pbc="F F F"
As       0.00000000       0.00000000       0.00000000       0.00000000       0.00000000       0.27381665
As       0.00000000       0.00000000       4.03333333       0.00000000       0.00000000      -0.27381665
2
Properties=species:S:1:pos:R:3:forces:R:3 energy=-3.489086791722232 pbc="F F F"
As       0.00000000       0.00000000       0.00000000       0.00000000       0.00000000       0.23621935
As       0.00000000       0.00000000       4.09292929       0.00000000       0.00000000      -0.23621935
2
Properties=species:S:1:pos:R:3:forces:R:3 energy=-3.4760067196969375 pbc="F F F"
As       0.00000000       0.00000000       0.00000000       0.00000000       0.00000000       0.20350784
As       0.00000000       0.00000000       4.15252525       0.00000000       0.00000000      -0.20350784
2
Properties=species:S:1:pos:R:3:forces:R:3 energy=-3.464742446305609 pbc="F F F"
As       0.00000000       0.00000000       0.00000000       0.00000000       0.00000000       0.17521942
As       0.00000000       0.00000000       4.21212121       0.00000000       0.00000000      -0.17521942
2
Properties=species:S:1:pos:R:3:forces:R:3 energy=-3.455042937248116 pbc="F F F"
As       0.00000000       0.00000000       0.00000000       0.00000000       0.00000000       0.15090683
As       0.00000000       0.00000000       4.27171717       0.00000000       0.00000000      -0.15090683
2
Properties=species:S:1:pos:R:3:forces:R:3 energy=-3.4466853241268005 pbc="F F F"
As       0.00000000       0.00000000       0.00000000       0.00000000       0.00000000       0.13012718
As       0.00000000       0.00000000       4.33131313       0.00000000       0.00000000      -0.13012718
2
Properties=species:S:1:pos:R:3:forces:R:3 energy=-3.4394717131381074 pbc="F F F"
As       0.00000000       0.00000000       0.00000000       0.00000000       0.00000000       0.11243495
As       0.00000000       0.00000000       4.39090909       0.00000000       0.00000000      -0.11243495
2
Properties=species:S:1:pos:R:3:forces:R:3 energy=-3.433230744712774 pbc="F F F"
As       0.00000000       0.00000000       0.00000000       0.00000000       0.00000000       0.09741192
As       0.00000000       0.00000000       4.45050505       0.00000000       0.00000000      -0.09741192
2
Properties=species:S:1:pos:R:3:forces:R:3 energy=-3.4278154208221308 pbc="F F F"
As       0.00000000       0.00000000       0.00000000       0.00000000       0.00000000       0.08468976
As       0.00000000       0.00000000       4.51010101       0.00000000       0.00000000      -0.08468976
2
Properties=species:S:1:pos:R:3:forces:R:3 energy=-3.4230965346279336 pbc="F F F"
As       0.00000000       0.00000000       0.00000000       0.00000000       0.00000000       0.07397503
As       0.00000000       0.00000000       4.56969697       0.00000000       0.00000000      -0.07397503
2
Properties=species:S:1:pos:R:3:forces:R:3 energy=-3.4189623061028933 pbc="F F F"
As       0.00000000       0.00000000       0.00000000       0.00000000       0.00000000       0.06505094
As       0.00000000       0.00000000       4.62929293       0.00000000       0.00000000      -0.06505094
2
Properties=species:S:1:pos:R:3:forces:R:3 energy=-3.415310843750993 pbc="F F F"
As       0.00000000       0.00000000       0.00000000       0.00000000       0.00000000       0.05775608
As       0.00000000       0.00000000       4.68888889       0.00000000       0.00000000      -0.05775608
2
Properties=species:S:1:pos:R:3:forces:R:3 energy=-3.4120488281376096 pbc="F F F"
As       0.00000000       0.00000000       0.00000000       0.00000000       0.00000000       0.05194481
As       0.00000000       0.00000000       4.74848485       0.00000000       0.00000000      -0.05194481
2
Properties=species:S:1:pos:R:3:forces:R:3 energy=-3.4090930937044623 pbc="F F F"
As       0.00000000       0.00000000       0.00000000       0.00000000       0.00000000       0.04745477
As       0.00000000       0.00000000       4.80808081       0.00000000       0.00000000      -0.04745477
2
Properties=species:S:1:pos:R:3:forces:R:3 energy=-3.406370297652268 pbc="F F F"
As       0.00000000       0.00000000       0.00000000       0.00000000       0.00000000       0.04408318
As       0.00000000       0.00000000       4.86767677       0.00000000       0.00000000      -0.04408318
2
Properties=species:S:1:pos:R:3:forces:R:3 energy=-3.403820952465747 pbc="F F F"
As       0.00000000       0.00000000       0.00000000       0.00000000       0.00000000       0.04160272
As       0.00000000       0.00000000       4.92727273       0.00000000       0.00000000      -0.04160272
2
Properties=species:S:1:pos:R:3:forces:R:3 energy=-3.4013982718345885 pbc="F F F"
As       0.00000000       0.00000000       0.00000000       0.00000000       0.00000000       0.03980014
As       0.00000000       0.00000000       4.98686869       0.00000000       0.00000000      -0.03980014
2
Properties=species:S:1:pos:R:3:forces:R:3 energy=-3.3990661151691746 pbc="F F F"
As       0.00000000       0.00000000       0.00000000       0.00000000       0.00000000       0.03856809
As       0.00000000       0.00000000       5.04646465       0.00000000       0.00000000      -0.03856809
2
Properties=species:S:1:pos:R:3:forces:R:3 energy=-3.3967884860957187 pbc="F F F"
As       0.00000000       0.00000000       0.00000000       0.00000000       0.00000000       0.03800675
As       0.00000000       0.00000000       5.10606061       0.00000000       0.00000000      -0.03800675
2
Properties=species:S:1:pos:R:3:forces:R:3 energy=-3.394515101380629 pbc="F F F"
As       0.00000000       0.00000000       0.00000000       0.00000000       0.00000000       0.03848938
As       0.00000000       0.00000000       5.16565657       0.00000000       0.00000000      -0.03848938
2
Properties=species:S:1:pos:R:3:forces:R:3 energy=-3.392171622104407 pbc="F F F"
As       0.00000000       0.00000000       0.00000000       0.00000000       0.00000000       0.04040468
As       0.00000000       0.00000000       5.22525253       0.00000000       0.00000000      -0.04040468
2
Properties=species:S:1:pos:R:3:forces:R:3 energy=-3.38967853466282 pbc="F F F"
As       0.00000000       0.00000000       0.00000000       0.00000000       0.00000000       0.04329992
As       0.00000000       0.00000000       5.28484848       0.00000000       0.00000000      -0.04329992
2
Properties=species:S:1:pos:R:3:forces:R:3 energy=-3.387031780596148 pbc="F F F"
As       0.00000000       0.00000000       0.00000000       0.00000000       0.00000000       0.04509621
As       0.00000000       0.00000000       5.34444444       0.00000000       0.00000000      -0.04509621
2
Properties=species:S:1:pos:R:3:forces:R:3 energy=-3.384376704362568 pbc="F F F"
As       0.00000000       0.00000000       0.00000000       0.00000000       0.00000000       0.04327714
As       0.00000000       0.00000000       5.40404040       0.00000000       0.00000000      -0.04327714
2
Properties=species:S:1:pos:R:3:forces:R:3 energy=-3.3819522816056238 pbc="F F F"
As       0.00000000       0.00000000       0.00000000       0.00000000       0.00000000       0.03757600
As       0.00000000       0.00000000       5.46363636       0.00000000       0.00000000      -0.03757600
2
Properties=species:S:1:pos:R:3:forces:R:3 energy=-3.3799237801979616 pbc="F F F"
As       0.00000000       0.00000000       0.00000000       0.00000000       0.00000000       0.03063322
As       0.00000000       0.00000000       5.52323232       0.00000000       0.00000000      -0.03063322
2
Properties=species:S:1:pos:R:3:forces:R:3 energy=-3.3782609608175878 pbc="F F F"
As       0.00000000       0.00000000       0.00000000       0.00000000       0.00000000       0.02566326
As       0.00000000       0.00000000       5.58282828       0.00000000       0.00000000      -0.02566326
2
Properties=species:S:1:pos:R:3:forces:R:3 energy=-3.3768064919926917 pbc="F F F"
As       0.00000000       0.00000000       0.00000000       0.00000000       0.00000000       0.02350993
As       0.00000000       0.00000000       5.64242424       0.00000000       0.00000000      -0.02350993
2
Properties=species:S:1:pos:R:3:forces:R:3 energy=-3.3754445555946253 pbc="F F F"
As       0.00000000       0.00000000       0.00000000       0.00000000       0.00000000       0.02203996
As       0.00000000       0.00000000       5.70202020       0.00000000       0.00000000      -0.02203996
2
Properties=species:S:1:pos:R:3:forces:R:3 energy=-3.374214574876003 pbc="F F F"
As       0.00000000       0.00000000       0.00000000       0.00000000       0.00000000       0.01893488
As       0.00000000       0.00000000       5.76161616       0.00000000       0.00000000      -0.01893488
2
Properties=species:S:1:pos:R:3:forces:R:3 energy=-3.3732206122428177 pbc="F F F"
As       0.00000000       0.00000000       0.00000000       0.00000000       0.00000000       0.01423690
As       0.00000000       0.00000000       5.82121212       0.00000000       0.00000000      -0.01423690
2
Properties=species:S:1:pos:R:3:forces:R:3 energy=-3.3725202907472043 pbc="F F F"
As       0.00000000       0.00000000       0.00000000       0.00000000       0.00000000       0.00943202
As       0.00000000       0.00000000       5.88080808       0.00000000       0.00000000      -0.00943202
2
Properties=species:S:1:pos:R:3:forces:R:3 energy=-3.3720704295036916 pbc="F F F"
As       0.00000000       0.00000000       0.00000000       0.00000000       0.00000000       0.00589074
As       0.00000000       0.00000000       5.94040404       0.00000000       0.00000000      -0.00589074
2
Properties=species:S:1:pos:R:3:forces:R:3 energy=-3.3717759234576965 pbc="F F F"
As       0.00000000       0.00000000       0.00000000       0.00000000       0.00000000       0.00440468
As       0.00000000       0.00000000       6.00000000       0.00000000       0.00000000      -0.00440468
