2
Properties=species:S:1:pos:R:3:forces:R:3 energy=927.5448762961722 pbc="F F F"
B        0.00000000       0.00000000       0.00000000       0.00000000       0.00000000  -17162.05664062
B        0.00000000       0.00000000       0.10000000       0.00000000       0.00000000   17162.05664062
2
Properties=species:S:1:pos:R:3:forces:R:3 energy=364.0324556418754 pbc="F F F"
B        0.00000000       0.00000000       0.00000000       0.00000000       0.00000000   -4926.09326172
B        0.00000000       0.00000000       0.15959596       0.00000000       0.00000000    4926.09326172
2
Properties=species:S:1:pos:R:3:forces:R:3 energy=177.36476155007853 pbc="F F F"
B        0.00000000       0.00000000       0.00000000       0.00000000       0.00000000   -1913.38891602
B        0.00000000       0.00000000       0.21919192       0.00000000       0.00000000    1913.38891602
2
Properties=species:S:1:pos:R:3:forces:R:3 energy=99.21694966201399 pbc="F F F"
B        0.00000000       0.00000000       0.00000000       0.00000000       0.00000000    -870.80596924
B        0.00000000       0.00000000       0.27878788       0.00000000       0.00000000     870.80596924
2
Properties=species:S:1:pos:R:3:forces:R:3 energy=62.00804921668947 pbc="F F F"
B        0.00000000       0.00000000       0.00000000       0.00000000       0.00000000    -435.22079468
B        0.00000000       0.00000000       0.33838384       0.00000000       0.00000000     435.22079468
2
Properties=species:S:1:pos:R:3:forces:R:3 energy=42.869060736071624 pbc="F F F"
B        0.00000000       0.00000000       0.00000000       0.00000000       0.00000000    -231.53088379
B        0.00000000       0.00000000       0.39797980       0.00000000       0.00000000     231.53088379
2
Properties=species:S:1:pos:R:3:forces:R:3 energy=32.41773248699413 pbc="F F F"
B        0.00000000       0.00000000       0.00000000       0.00000000       0.00000000    -130.54324341
B        0.00000000       0.00000000       0.45757576       0.00000000       0.00000000     130.54324341
2
Properties=species:S:1:pos:R:3:forces:R:3 energy=26.25596076497121 pbc="F F F"
B        0.00000000       0.00000000       0.00000000       0.00000000       0.00000000     -83.57159424
B        0.00000000       0.00000000       0.51717172       0.00000000       0.00000000      83.57159424
2
Properties=species:S:1:pos:R:3:forces:R:3 energy=21.74672929103915 pbc="F F F"
B        0.00000000       0.00000000       0.00000000       0.00000000       0.00000000     -71.96249390
B        0.00000000       0.00000000       0.57676768       0.00000000       0.00000000      71.96249390
2
Properties=species:S:1:pos:R:3:forces:R:3 energy=17.40445955355323 pbc="F F F"
B        0.00000000       0.00000000       0.00000000       0.00000000       0.00000000     -74.36081696
B        0.00000000       0.00000000       0.63636364       0.00000000       0.00000000      74.36081696
2
Properties=species:S:1:pos:R:3:forces:R:3 energy=13.006484837438549 pbc="F F F"
B        0.00000000       0.00000000       0.00000000       0.00000000       0.00000000     -70.61531830
B        0.00000000       0.00000000       0.69595960       0.00000000       0.00000000      70.61531830
2
Properties=species:S:1:pos:R:3:forces:R:3 energy=9.329564336272568 pbc="F F F"
B        0.00000000       0.00000000       0.00000000       0.00000000       0.00000000     -51.36420059
B        0.00000000       0.00000000       0.75555556       0.00000000       0.00000000      51.36420059
2
Properties=species:S:1:pos:R:3:forces:R:3 energy=6.79703127352196 pbc="F F F"
B        0.00000000       0.00000000       0.00000000       0.00000000       0.00000000     -35.35220337
B        0.00000000       0.00000000       0.81515152       0.00000000       0.00000000      35.35220337
2
Properties=species:S:1:pos:R:3:forces:R:3 energy=4.94516491721856 pbc="F F F"
B        0.00000000       0.00000000       0.00000000       0.00000000       0.00000000     -27.77199364
B        0.00000000       0.00000000       0.87474747       0.00000000       0.00000000      27.77199364
2
Properties=species:S:1:pos:R:3:forces:R:3 energy=3.4159426662420507 pbc="F F F"
B        0.00000000       0.00000000       0.00000000       0.00000000       0.00000000     -23.83578873
B        0.00000000       0.00000000       0.93434343       0.00000000       0.00000000      23.83578873
2
Properties=species:S:1:pos:R:3:forces:R:3 energy=2.092561935885056 pbc="F F F"
B        0.00000000       0.00000000       0.00000000       0.00000000       0.00000000     -20.56150818
B        0.00000000       0.00000000       0.99393939       0.00000000       0.00000000      20.56150818
2
Properties=species:S:1:pos:R:3:forces:R:3 energy=0.9692699976963192 pbc="F F F"
B        0.00000000       0.00000000       0.00000000       0.00000000       0.00000000     -17.12935257
B        0.00000000       0.00000000       1.05353535       0.00000000       0.00000000      17.12935257
2
Properties=species:S:1:pos:R:3:forces:R:3 energy=0.04024518757706766 pbc="F F F"
B        0.00000000       0.00000000       0.00000000       0.00000000       0.00000000     -14.24898434
B        0.00000000       0.00000000       1.11313131       0.00000000       0.00000000      14.24898434
2
Properties=species:S:1:pos:R:3:forces:R:3 energy=-0.758376664225745 pbc="F F F"
B        0.00000000       0.00000000       0.00000000       0.00000000       0.00000000     -12.75617695
B        0.00000000       0.00000000       1.17272727       0.00000000       0.00000000      12.75617695
2
Properties=species:S:1:pos:R:3:forces:R:3 energy=-1.4887243661589529 pbc="F F F"
B        0.00000000       0.00000000       0.00000000       0.00000000       0.00000000     -11.69167614
B        0.00000000       0.00000000       1.23232323       0.00000000       0.00000000      11.69167614
2
Properties=species:S:1:pos:R:3:forces:R:3 energy=-2.1358885409231787 pbc="F F F"
B        0.00000000       0.00000000       0.00000000       0.00000000       0.00000000      -9.87049294
B        0.00000000       0.00000000       1.29191919       0.00000000       0.00000000       9.87049294
2
Properties=species:S:1:pos:R:3:forces:R:3 energy=-2.650789292330939 pbc="F F F"
B        0.00000000       0.00000000       0.00000000       0.00000000       0.00000000      -7.34575129
B        0.00000000       0.00000000       1.35151515       0.00000000       0.00000000       7.34575129
2
Properties=species:S:1:pos:R:3:forces:R:3 energy=-3.0118188665194126 pbc="F F F"
B        0.00000000       0.00000000       0.00000000       0.00000000       0.00000000      -4.83130693
B        0.00000000       0.00000000       1.41111111       0.00000000       0.00000000       4.83130693
2
Properties=species:S:1:pos:R:3:forces:R:3 energy=-3.2377328751664063 pbc="F F F"
B        0.00000000       0.00000000       0.00000000       0.00000000       0.00000000      -2.85598278
B        0.00000000       0.00000000       1.47070707       0.00000000       0.00000000       2.85598278
2
Properties=species:S:1:pos:R:3:forces:R:3 energy=-3.363995588165316 pbc="F F F"
B        0.00000000       0.00000000       0.00000000       0.00000000       0.00000000      -1.46681356
B        0.00000000       0.00000000       1.53030303       0.00000000       0.00000000       1.46681356
2
Properties=species:S:1:pos:R:3:forces:R:3 energy=-3.420949411950293 pbc="F F F"
B        0.00000000       0.00000000       0.00000000       0.00000000       0.00000000      -0.50099957
B        0.00000000       0.00000000       1.58989899       0.00000000       0.00000000       0.50099957
2
Properties=species:S:1:pos:R:3:forces:R:3 energy=-3.4290906600375393 pbc="F F F"
B        0.00000000       0.00000000       0.00000000       0.00000000       0.00000000       0.19271989
B        0.00000000       0.00000000       1.64949495       0.00000000       0.00000000      -0.19271989
2
Properties=species:S:1:pos:R:3:forces:R:3 energy=-3.4011375068416414 pbc="F F F"
B        0.00000000       0.00000000       0.00000000       0.00000000       0.00000000       0.72678733
B        0.00000000       0.00000000       1.70909091       0.00000000       0.00000000      -0.72678733
2
Properties=species:S:1:pos:R:3:forces:R:3 energy=-3.343960503612692 pbc="F F F"
B        0.00000000       0.00000000       0.00000000       0.00000000       0.00000000       1.18334091
B        0.00000000       0.00000000       1.76868687       0.00000000       0.00000000      -1.18334091
2
Properties=species:S:1:pos:R:3:forces:R:3 energy=-3.2609922089886365 pbc="F F F"
B        0.00000000       0.00000000       0.00000000       0.00000000       0.00000000       1.59293056
B        0.00000000       0.00000000       1.82828283       0.00000000       0.00000000      -1.59293056
2
Properties=species:S:1:pos:R:3:forces:R:3 energy=-3.1553900301282827 pbc="F F F"
B        0.00000000       0.00000000       0.00000000       0.00000000       0.00000000       1.93645012
B        0.00000000       0.00000000       1.88787879       0.00000000       0.00000000      -1.93645012
2
Properties=species:S:1:pos:R:3:forces:R:3 energy=-3.0323695569602385 pbc="F F F"
B        0.00000000       0.00000000       0.00000000       0.00000000       0.00000000       2.17062354
B        0.00000000       0.00000000       1.94747475       0.00000000       0.00000000      -2.17062354
2
Properties=species:S:1:pos:R:3:forces:R:3 energy=-2.899333540872627 pbc="F F F"
B        0.00000000       0.00000000       0.00000000       0.00000000       0.00000000       2.27263999
B        0.00000000       0.00000000       2.00707071       0.00000000       0.00000000      -2.27263999
2
Properties=species:S:1:pos:R:3:forces:R:3 energy=-2.763576765480999 pbc="F F F"
B        0.00000000       0.00000000       0.00000000       0.00000000       0.00000000       2.27037716
B        0.00000000       0.00000000       2.06666667       0.00000000       0.00000000      -2.27037716
2
Properties=species:S:1:pos:R:3:forces:R:3 energy=-2.6298213520925087 pbc="F F F"
B        0.00000000       0.00000000       0.00000000       0.00000000       0.00000000       2.21181679
B        0.00000000       0.00000000       2.12626263       0.00000000       0.00000000      -2.21181679
2
Properties=species:S:1:pos:R:3:forces:R:3 energy=-2.5005000640592354 pbc="F F F"
B        0.00000000       0.00000000       0.00000000       0.00000000       0.00000000       2.12523961
B        0.00000000       0.00000000       2.18585859       0.00000000       0.00000000      -2.12523961
2
Properties=species:S:1:pos:R:3:forces:R:3 energy=-2.3766502867489674 pbc="F F F"
B        0.00000000       0.00000000       0.00000000       0.00000000       0.00000000       2.03132629
B        0.00000000       0.00000000       2.24545455       0.00000000       0.00000000      -2.03132629
2
Properties=species:S:1:pos:R:3:forces:R:3 energy=-2.2582427178522497 pbc="F F F"
B        0.00000000       0.00000000       0.00000000       0.00000000       0.00000000       1.94410062
B        0.00000000       0.00000000       2.30505051       0.00000000       0.00000000      -1.94410062
2
Properties=species:S:1:pos:R:3:forces:R:3 energy=-2.144715100884186 pbc="F F F"
B        0.00000000       0.00000000       0.00000000       0.00000000       0.00000000       1.86742830
B        0.00000000       0.00000000       2.36464646       0.00000000       0.00000000      -1.86742830
2
Properties=species:S:1:pos:R:3:forces:R:3 energy=-2.035513196591544 pbc="F F F"
B        0.00000000       0.00000000       0.00000000       0.00000000       0.00000000       1.79802012
B        0.00000000       0.00000000       2.42424242       0.00000000       0.00000000      -1.79802012
2
Properties=species:S:1:pos:R:3:forces:R:3 energy=-1.9303858062560464 pbc="F F F"
B        0.00000000       0.00000000       0.00000000       0.00000000       0.00000000       1.72967255
B        0.00000000       0.00000000       2.48383838       0.00000000       0.00000000      -1.72967255
2
Properties=species:S:1:pos:R:3:forces:R:3 energy=-1.8294423532885724 pbc="F F F"
B        0.00000000       0.00000000       0.00000000       0.00000000       0.00000000       1.65685165
B        0.00000000       0.00000000       2.54343434       0.00000000       0.00000000      -1.65685165
2
Properties=species:S:1:pos:R:3:forces:R:3 energy=-1.7330474964591074 pbc="F F F"
B        0.00000000       0.00000000       0.00000000       0.00000000       0.00000000       1.57680511
B        0.00000000       0.00000000       2.60303030       0.00000000       0.00000000      -1.57680511
2
Properties=species:S:1:pos:R:3:forces:R:3 energy=-1.6416358968684626 pbc="F F F"
B        0.00000000       0.00000000       0.00000000       0.00000000       0.00000000       1.48990321
B        0.00000000       0.00000000       2.66262626       0.00000000       0.00000000      -1.48990321
2
Properties=species:S:1:pos:R:3:forces:R:3 energy=-1.5555507527337127 pbc="F F F"
B        0.00000000       0.00000000       0.00000000       0.00000000       0.00000000       1.39858794
B        0.00000000       0.00000000       2.72222222       0.00000000       0.00000000      -1.39858794
2
Properties=species:S:1:pos:R:3:forces:R:3 energy=-1.4749636632433198 pbc="F F F"
B        0.00000000       0.00000000       0.00000000       0.00000000       0.00000000       1.30589378
B        0.00000000       0.00000000       2.78181818       0.00000000       0.00000000      -1.30589378
2
Properties=species:S:1:pos:R:3:forces:R:3 energy=-1.3998756387563653 pbc="F F F"
B        0.00000000       0.00000000       0.00000000       0.00000000       0.00000000       1.21432626
B        0.00000000       0.00000000       2.84141414       0.00000000       0.00000000      -1.21432626
2
Properties=species:S:1:pos:R:3:forces:R:3 energy=-1.3301728098906689 pbc="F F F"
B        0.00000000       0.00000000       0.00000000       0.00000000       0.00000000       1.12537754
B        0.00000000       0.00000000       2.90101010       0.00000000       0.00000000      -1.12537754
2
Properties=species:S:1:pos:R:3:forces:R:3 energy=-1.2656768205421294 pbc="F F F"
B        0.00000000       0.00000000       0.00000000       0.00000000       0.00000000       1.03959453
B        0.00000000       0.00000000       2.96060606       0.00000000       0.00000000      -1.03959453
2
Properties=species:S:1:pos:R:3:forces:R:3 energy=-1.2061984047088405 pbc="F F F"
B        0.00000000       0.00000000       0.00000000       0.00000000       0.00000000       0.95697725
B        0.00000000       0.00000000       3.02020202       0.00000000       0.00000000      -0.95697725
2
Properties=species:S:1:pos:R:3:forces:R:3 energy=-1.151552461882501 pbc="F F F"
B        0.00000000       0.00000000       0.00000000       0.00000000       0.00000000       0.87743020
B        0.00000000       0.00000000       3.07979798       0.00000000       0.00000000      -0.87743020
2
Properties=species:S:1:pos:R:3:forces:R:3 energy=-1.1015528561891863 pbc="F F F"
B        0.00000000       0.00000000       0.00000000       0.00000000       0.00000000       0.80109447
B        0.00000000       0.00000000       3.13939394       0.00000000       0.00000000      -0.80109447
2
Properties=species:S:1:pos:R:3:forces:R:3 energy=-1.055994623694935 pbc="F F F"
B        0.00000000       0.00000000       0.00000000       0.00000000       0.00000000       0.72845614
B        0.00000000       0.00000000       3.19898990       0.00000000       0.00000000      -0.72845614
2
Properties=species:S:1:pos:R:3:forces:R:3 energy=-1.014638170839239 pbc="F F F"
B        0.00000000       0.00000000       0.00000000       0.00000000       0.00000000       0.66026157
B        0.00000000       0.00000000       3.25858586       0.00000000       0.00000000      -0.66026157
2
Properties=species:S:1:pos:R:3:forces:R:3 energy=-0.9771932787994652 pbc="F F F"
B        0.00000000       0.00000000       0.00000000       0.00000000       0.00000000       0.59730083
B        0.00000000       0.00000000       3.31818182       0.00000000       0.00000000      -0.59730083
2
Properties=species:S:1:pos:R:3:forces:R:3 energy=-0.943328474507333 pbc="F F F"
B        0.00000000       0.00000000       0.00000000       0.00000000       0.00000000       0.54019010
B        0.00000000       0.00000000       3.37777778       0.00000000       0.00000000      -0.54019010
2
Properties=species:S:1:pos:R:3:forces:R:3 energy=-0.9126848494230353 pbc="F F F"
B        0.00000000       0.00000000       0.00000000       0.00000000       0.00000000       0.48922065
B        0.00000000       0.00000000       3.43737374       0.00000000       0.00000000      -0.48922065
2
Properties=species:S:1:pos:R:3:forces:R:3 energy=-0.8848967326754916 pbc="F F F"
B        0.00000000       0.00000000       0.00000000       0.00000000       0.00000000       0.44430888
B        0.00000000       0.00000000       3.49696970       0.00000000       0.00000000      -0.44430888
2
Properties=species:S:1:pos:R:3:forces:R:3 energy=-0.8596139103395859 pbc="F F F"
B        0.00000000       0.00000000       0.00000000       0.00000000       0.00000000       0.40504447
B        0.00000000       0.00000000       3.55656566       0.00000000       0.00000000      -0.40504447
2
Properties=species:S:1:pos:R:3:forces:R:3 energy=-0.8365186110079985 pbc="F F F"
B        0.00000000       0.00000000       0.00000000       0.00000000       0.00000000       0.37080589
B        0.00000000       0.00000000       3.61616162       0.00000000       0.00000000      -0.37080589
2
Properties=species:S:1:pos:R:3:forces:R:3 energy=-0.8153318801523582 pbc="F F F"
B        0.00000000       0.00000000       0.00000000       0.00000000       0.00000000       0.34087712
B        0.00000000       0.00000000       3.67575758       0.00000000       0.00000000      -0.34087712
2
Properties=species:S:1:pos:R:3:forces:R:3 energy=-0.7958171283074885 pbc="F F F"
B        0.00000000       0.00000000       0.00000000       0.00000000       0.00000000       0.31456742
B        0.00000000       0.00000000       3.73535354       0.00000000       0.00000000      -0.31456742
2
Properties=species:S:1:pos:R:3:forces:R:3 energy=-0.7777775478967971 pbc="F F F"
B        0.00000000       0.00000000       0.00000000       0.00000000       0.00000000       0.29128343
B        0.00000000       0.00000000       3.79494949       0.00000000       0.00000000      -0.29128343
2
Properties=species:S:1:pos:R:3:forces:R:3 energy=-0.7610476165265445 pbc="F F F"
B        0.00000000       0.00000000       0.00000000       0.00000000       0.00000000       0.27055749
B        0.00000000       0.00000000       3.85454545       0.00000000       0.00000000      -0.27055749
2
Properties=species:S:1:pos:R:3:forces:R:3 energy=-0.7454854194900045 pbc="F F F"
B        0.00000000       0.00000000       0.00000000       0.00000000       0.00000000       0.25205407
B        0.00000000       0.00000000       3.91414141       0.00000000       0.00000000      -0.25205407
2
Properties=species:S:1:pos:R:3:forces:R:3 energy=-0.7309652487040692 pbc="F F F"
B        0.00000000       0.00000000       0.00000000       0.00000000       0.00000000       0.23554212
B        0.00000000       0.00000000       3.97373737       0.00000000       0.00000000      -0.23554212
2
Properties=species:S:1:pos:R:3:forces:R:3 energy=-0.7173740448535196 pbc="F F F"
B        0.00000000       0.00000000       0.00000000       0.00000000       0.00000000       0.22086816
B        0.00000000       0.00000000       4.03333333       0.00000000       0.00000000      -0.22086816
2
Properties=species:S:1:pos:R:3:forces:R:3 energy=-0.7046053965368159 pbc="F F F"
B        0.00000000       0.00000000       0.00000000       0.00000000       0.00000000       0.20791532
B        0.00000000       0.00000000       4.09292929       0.00000000       0.00000000      -0.20791532
2
Properties=species:S:1:pos:R:3:forces:R:3 energy=-0.6925604850209228 pbc="F F F"
B        0.00000000       0.00000000       0.00000000       0.00000000       0.00000000       0.19656168
B        0.00000000       0.00000000       4.15252525       0.00000000       0.00000000      -0.19656168
2
Properties=species:S:1:pos:R:3:forces:R:3 energy=-0.681148306820779 pbc="F F F"
B        0.00000000       0.00000000       0.00000000       0.00000000       0.00000000       0.18665552
B        0.00000000       0.00000000       4.21212121       0.00000000       0.00000000      -0.18665552
2
Properties=species:S:1:pos:R:3:forces:R:3 energy=-0.6702877143044383 pbc="F F F"
B        0.00000000       0.00000000       0.00000000       0.00000000       0.00000000       0.17799322
B        0.00000000       0.00000000       4.27171717       0.00000000       0.00000000      -0.17799322
2
Properties=species:S:1:pos:R:3:forces:R:3 energy=-0.6599131248597012 pbc="F F F"
B        0.00000000       0.00000000       0.00000000       0.00000000       0.00000000       0.17032513
B        0.00000000       0.00000000       4.33131313       0.00000000       0.00000000      -0.17032513
2
Properties=species:S:1:pos:R:3:forces:R:3 energy=-0.649972339072944 pbc="F F F"
B        0.00000000       0.00000000       0.00000000       0.00000000       0.00000000       0.16337204
B        0.00000000       0.00000000       4.39090909       0.00000000       0.00000000      -0.16337204
2
Properties=species:S:1:pos:R:3:forces:R:3 energy=-0.6404315409756567 pbc="F F F"
B        0.00000000       0.00000000       0.00000000       0.00000000       0.00000000       0.15685837
B        0.00000000       0.00000000       4.45050505       0.00000000       0.00000000      -0.15685837
2
Properties=species:S:1:pos:R:3:forces:R:3 energy=-0.6312722619593572 pbc="F F F"
B        0.00000000       0.00000000       0.00000000       0.00000000       0.00000000       0.15054174
B        0.00000000       0.00000000       4.51010101       0.00000000       0.00000000      -0.15054174
2
Properties=species:S:1:pos:R:3:forces:R:3 energy=-0.622488106271927 pbc="F F F"
B        0.00000000       0.00000000       0.00000000       0.00000000       0.00000000       0.14422825
B        0.00000000       0.00000000       4.56969697       0.00000000       0.00000000      -0.14422825
2
Properties=species:S:1:pos:R:3:forces:R:3 energy=-0.6140839925803159 pbc="F F F"
B        0.00000000       0.00000000       0.00000000       0.00000000       0.00000000       0.13777708
B        0.00000000       0.00000000       4.62929293       0.00000000       0.00000000      -0.13777708
2
Properties=species:S:1:pos:R:3:forces:R:3 energy=-0.6060710588573575 pbc="F F F"
B        0.00000000       0.00000000       0.00000000       0.00000000       0.00000000       0.13109554
B        0.00000000       0.00000000       4.68888889       0.00000000       0.00000000      -0.13109554
2
Properties=species:S:1:pos:R:3:forces:R:3 energy=-0.5984642239270421 pbc="F F F"
B        0.00000000       0.00000000       0.00000000       0.00000000       0.00000000       0.12412740
B        0.00000000       0.00000000       4.74848485       0.00000000       0.00000000      -0.12412740
2
Properties=species:S:1:pos:R:3:forces:R:3 energy=-0.591281833004471 pbc="F F F"
B        0.00000000       0.00000000       0.00000000       0.00000000       0.00000000       0.11686961
B        0.00000000       0.00000000       4.80808081       0.00000000       0.00000000      -0.11686961
2
Properties=species:S:1:pos:R:3:forces:R:3 energy=-0.5845386455225918 pbc="F F F"
B        0.00000000       0.00000000       0.00000000       0.00000000       0.00000000       0.10939665
B        0.00000000       0.00000000       4.86767677       0.00000000       0.00000000      -0.10939665
2
Properties=species:S:1:pos:R:3:forces:R:3 energy=-0.5782427321268717 pbc="F F F"
B        0.00000000       0.00000000       0.00000000       0.00000000       0.00000000       0.10190871
B        0.00000000       0.00000000       4.92727273       0.00000000       0.00000000      -0.10190871
2
Properties=species:S:1:pos:R:3:forces:R:3 energy=-0.5723851272257714 pbc="F F F"
B        0.00000000       0.00000000       0.00000000       0.00000000       0.00000000       0.09476326
B        0.00000000       0.00000000       4.98686869       0.00000000       0.00000000      -0.09476326
2
Properties=species:S:1:pos:R:3:forces:R:3 energy=-0.5669322300865026 pbc="F F F"
B        0.00000000       0.00000000       0.00000000       0.00000000       0.00000000       0.08842646
B        0.00000000       0.00000000       5.04646465       0.00000000       0.00000000      -0.08842646
2
Properties=species:S:1:pos:R:3:forces:R:3 energy=-0.5618225139082766 pbc="F F F"
B        0.00000000       0.00000000       0.00000000       0.00000000       0.00000000       0.08324891
B        0.00000000       0.00000000       5.10606061       0.00000000       0.00000000      -0.08324891
2
Properties=species:S:1:pos:R:3:forces:R:3 energy=-0.5569890975597177 pbc="F F F"
B        0.00000000       0.00000000       0.00000000       0.00000000       0.00000000       0.07902557
B        0.00000000       0.00000000       5.16565657       0.00000000       0.00000000      -0.07902557
2
Properties=species:S:1:pos:R:3:forces:R:3 energy=-0.5524065774066342 pbc="F F F"
B        0.00000000       0.00000000       0.00000000       0.00000000       0.00000000       0.07458665
B        0.00000000       0.00000000       5.22525253       0.00000000       0.00000000      -0.07458665
2
Properties=species:S:1:pos:R:3:forces:R:3 energy=-0.5481396765814888 pbc="F F F"
B        0.00000000       0.00000000       0.00000000       0.00000000       0.00000000       0.06814671
B        0.00000000       0.00000000       5.28484848       0.00000000       0.00000000      -0.06814671
2
Properties=species:S:1:pos:R:3:forces:R:3 energy=-0.5443468295776177 pbc="F F F"
B        0.00000000       0.00000000       0.00000000       0.00000000       0.00000000       0.05860768
B        0.00000000       0.00000000       5.34444444       0.00000000       0.00000000      -0.05860768
2
Properties=species:S:1:pos:R:3:forces:R:3 energy=-0.5412073921086826 pbc="F F F"
B        0.00000000       0.00000000       0.00000000       0.00000000       0.00000000       0.04640232
B        0.00000000       0.00000000       5.40404040       0.00000000       0.00000000      -0.04640232
2
Properties=species:S:1:pos:R:3:forces:R:3 energy=-0.5388420239544288 pbc="F F F"
B        0.00000000       0.00000000       0.00000000       0.00000000       0.00000000       0.03285990
B        0.00000000       0.00000000       5.46363636       0.00000000       0.00000000      -0.03285990
2
Properties=species:S:1:pos:R:3:forces:R:3 energy=-0.5372906825714511 pbc="F F F"
B        0.00000000       0.00000000       0.00000000       0.00000000       0.00000000       0.01931136
B        0.00000000       0.00000000       5.52323232       0.00000000       0.00000000      -0.01931136
2
Properties=species:S:1:pos:R:3:forces:R:3 energy=-0.5365258012633787 pbc="F F F"
B        0.00000000       0.00000000       0.00000000       0.00000000       0.00000000       0.00651555
B        0.00000000       0.00000000       5.58282828       0.00000000       0.00000000      -0.00651555
2
Properties=species:S:1:pos:R:3:forces:R:3 energy=-0.5364864339308206 pbc="F F F"
B        0.00000000       0.00000000       0.00000000       0.00000000       0.00000000      -0.00484183
B        0.00000000       0.00000000       5.64242424       0.00000000       0.00000000       0.00484183
2
Properties=species:S:1:pos:R:3:forces:R:3 energy=-0.53703664964339 pbc="F F F"
B        0.00000000       0.00000000       0.00000000       0.00000000       0.00000000      -0.01280296
B        0.00000000       0.00000000       5.70202020       0.00000000       0.00000000       0.01280296
2
Properties=species:S:1:pos:R:3:forces:R:3 energy=-0.5378944292482092 pbc="F F F"
B        0.00000000       0.00000000       0.00000000       0.00000000       0.00000000      -0.01496652
B        0.00000000       0.00000000       5.76161616       0.00000000       0.00000000       0.01496652
2
Properties=species:S:1:pos:R:3:forces:R:3 energy=-0.5387059167202004 pbc="F F F"
B        0.00000000       0.00000000       0.00000000       0.00000000       0.00000000      -0.01148452
B        0.00000000       0.00000000       5.82121212       0.00000000       0.00000000       0.01148452
2
Properties=species:S:1:pos:R:3:forces:R:3 energy=-0.539209279458173 pbc="F F F"
B        0.00000000       0.00000000       0.00000000       0.00000000       0.00000000      -0.00537330
B        0.00000000       0.00000000       5.88080808       0.00000000       0.00000000       0.00537330
2
Properties=species:S:1:pos:R:3:forces:R:3 energy=-0.5393680953622865 pbc="F F F"
B        0.00000000       0.00000000       0.00000000       0.00000000       0.00000000      -0.00025280
B        0.00000000       0.00000000       5.94040404       0.00000000       0.00000000       0.00025280
2
Properties=species:S:1:pos:R:3:forces:R:3 energy=-0.5393067997168314 pbc="F F F"
B        0.00000000       0.00000000       0.00000000       0.00000000       0.00000000       0.00162845
B        0.00000000       0.00000000       6.00000000       0.00000000       0.00000000      -0.00162845
