2
Properties=species:S:1:pos:R:3:forces:R:3 energy=50450.14914589838 pbc="F F F"
Ba       0.00000000       0.00000000       0.00000000       0.00000000       0.00000000 -1233291.25000000
Ba       0.00000000       0.00000000       0.10000000       0.00000000       0.00000000 1233291.25000000
2
Properties=species:S:1:pos:R:3:forces:R:3 energy=14469.534888085882 pbc="F F F"
Ba       0.00000000       0.00000000       0.00000000       0.00000000       0.00000000 -264047.78125000
Ba       0.00000000       0.00000000       0.15959596       0.00000000       0.00000000  264047.78125000
2
Properties=species:S:1:pos:R:3:forces:R:3 energy=5407.142309960882 pbc="F F F"
Ba       0.00000000       0.00000000       0.00000000       0.00000000       0.00000000  -81613.91406250
Ba       0.00000000       0.00000000       0.21919192       0.00000000       0.00000000   81613.91406250
2
Properties=species:S:1:pos:R:3:forces:R:3 energy=2335.536841210882 pbc="F F F"
Ba       0.00000000       0.00000000       0.00000000       0.00000000       0.00000000  -30860.01953125
Ba       0.00000000       0.00000000       0.27878788       0.00000000       0.00000000   30860.01953125
2
Properties=species:S:1:pos:R:3:forces:R:3 energy=1107.5298832030696 pbc="F F F"
Ba       0.00000000       0.00000000       0.00000000       0.00000000       0.00000000  -13160.30078125
Ba       0.00000000       0.00000000       0.33838384       0.00000000       0.00000000   13160.30078125
2
Properties=species:S:1:pos:R:3:forces:R:3 energy=564.1512210936946 pbc="F F F"
Ba       0.00000000       0.00000000       0.00000000       0.00000000       0.00000000   -6079.98876953
Ba       0.00000000       0.00000000       0.39797980       0.00000000       0.00000000    6079.98876953
2
Properties=species:S:1:pos:R:3:forces:R:3 energy=306.08142739252276 pbc="F F F"
Ba       0.00000000       0.00000000       0.00000000       0.00000000       0.00000000   -2983.82592773
Ba       0.00000000       0.00000000       0.45757576       0.00000000       0.00000000    2983.82592773
2
Properties=species:S:1:pos:R:3:forces:R:3 energy=176.51001626604588 pbc="F F F"
Ba       0.00000000       0.00000000       0.00000000       0.00000000       0.00000000   -1539.31835938
Ba       0.00000000       0.00000000       0.51717172       0.00000000       0.00000000    1539.31835938
2
Properties=species:S:1:pos:R:3:forces:R:3 energy=108.34149058291638 pbc="F F F"
Ba       0.00000000       0.00000000       0.00000000       0.00000000       0.00000000    -828.69036865
Ba       0.00000000       0.00000000       0.57676768       0.00000000       0.00000000     828.69036865
2
Properties=species:S:1:pos:R:3:forces:R:3 energy=71.03108105602487 pbc="F F F"
Ba       0.00000000       0.00000000       0.00000000       0.00000000       0.00000000    -462.13970947
Ba       0.00000000       0.00000000       0.63636364       0.00000000       0.00000000     462.13970947
2
Properties=species:S:1:pos:R:3:forces:R:3 energy=49.95837295148464 pbc="F F F"
Ba       0.00000000       0.00000000       0.00000000       0.00000000       0.00000000    -264.54821777
Ba       0.00000000       0.00000000       0.69595960       0.00000000       0.00000000     264.54821777
2
Properties=species:S:1:pos:R:3:forces:R:3 energy=37.8030614113615 pbc="F F F"
Ba       0.00000000       0.00000000       0.00000000       0.00000000       0.00000000    -153.63717651
Ba       0.00000000       0.00000000       0.75555556       0.00000000       0.00000000     153.63717651
2
Properties=species:S:1:pos:R:3:forces:R:3 energy=30.73421762682956 pbc="F F F"
Ba       0.00000000       0.00000000       0.00000000       0.00000000       0.00000000     -89.24394226
Ba       0.00000000       0.00000000       0.81515152       0.00000000       0.00000000      89.24394226
2
Properties=species:S:1:pos:R:3:forces:R:3 energy=26.652422983094695 pbc="F F F"
Ba       0.00000000       0.00000000       0.00000000       0.00000000       0.00000000     -50.99236679
Ba       0.00000000       0.00000000       0.87474747       0.00000000       0.00000000      50.99236679
2
Properties=species:S:1:pos:R:3:forces:R:3 energy=24.357318123003186 pbc="F F F"
Ba       0.00000000       0.00000000       0.00000000       0.00000000       0.00000000     -27.93511200
Ba       0.00000000       0.00000000       0.93434343       0.00000000       0.00000000      27.93511200
2
Properties=species:S:1:pos:R:3:forces:R:3 energy=23.148406404649272 pbc="F F F"
Ba       0.00000000       0.00000000       0.00000000       0.00000000       0.00000000     -13.74249649
Ba       0.00000000       0.00000000       0.99393939       0.00000000       0.00000000      13.74249649
2
Properties=species:S:1:pos:R:3:forces:R:3 energy=22.616990693401412 pbc="F F F"
Ba       0.00000000       0.00000000       0.00000000       0.00000000       0.00000000      -4.76045322
Ba       0.00000000       0.00000000       1.05353535       0.00000000       0.00000000       4.76045322
2
Properties=species:S:1:pos:R:3:forces:R:3 energy=22.51642986821585 pbc="F F F"
Ba       0.00000000       0.00000000       0.00000000       0.00000000       0.00000000       0.94376206
Ba       0.00000000       0.00000000       1.11313131       0.00000000       0.00000000      -0.94376206
2
Properties=species:S:1:pos:R:3:forces:R:3 energy=22.684179691275602 pbc="F F F"
Ba       0.00000000       0.00000000       0.00000000       0.00000000       0.00000000       4.34898138
Ba       0.00000000       0.00000000       1.17272727       0.00000000       0.00000000      -4.34898138
2
Properties=species:S:1:pos:R:3:forces:R:3 energy=22.997044533394234 pbc="F F F"
Ba       0.00000000       0.00000000       0.00000000       0.00000000       0.00000000       5.84042120
Ba       0.00000000       0.00000000       1.23232323       0.00000000       0.00000000      -5.84042120
2
Properties=species:S:1:pos:R:3:forces:R:3 energy=23.34268920850056 pbc="F F F"
Ba       0.00000000       0.00000000       0.00000000       0.00000000       0.00000000       5.43482924
Ba       0.00000000       0.00000000       1.29191919       0.00000000       0.00000000      -5.43482924
2
Properties=species:S:1:pos:R:3:forces:R:3 energy=23.605343446320838 pbc="F F F"
Ba       0.00000000       0.00000000       0.00000000       0.00000000       0.00000000       3.04634595
Ba       0.00000000       0.00000000       1.35151515       0.00000000       0.00000000      -3.04634595
2
Properties=species:S:1:pos:R:3:forces:R:3 energy=23.667890325090134 pbc="F F F"
Ba       0.00000000       0.00000000       0.00000000       0.00000000       0.00000000      -1.23687208
Ba       0.00000000       0.00000000       1.41111111       0.00000000       0.00000000       1.23687208
2
Properties=species:S:1:pos:R:3:forces:R:3 energy=23.429078286985103 pbc="F F F"
Ba       0.00000000       0.00000000       0.00000000       0.00000000       0.00000000      -6.96292257
Ba       0.00000000       0.00000000       1.47070707       0.00000000       0.00000000       6.96292257
2
Properties=species:S:1:pos:R:3:forces:R:3 energy=22.822854023866192 pbc="F F F"
Ba       0.00000000       0.00000000       0.00000000       0.00000000       0.00000000     -13.45044994
Ba       0.00000000       0.00000000       1.53030303       0.00000000       0.00000000      13.45044994
2
Properties=species:S:1:pos:R:3:forces:R:3 energy=21.824219849894337 pbc="F F F"
Ba       0.00000000       0.00000000       0.00000000       0.00000000       0.00000000     -20.02308655
Ba       0.00000000       0.00000000       1.58989899       0.00000000       0.00000000      20.02308655
2
Properties=species:S:1:pos:R:3:forces:R:3 energy=20.447948275265336 pbc="F F F"
Ba       0.00000000       0.00000000       0.00000000       0.00000000       0.00000000     -26.00459290
Ba       0.00000000       0.00000000       1.64949495       0.00000000       0.00000000      26.00459290
2
Properties=species:S:1:pos:R:3:forces:R:3 energy=18.75104237824022 pbc="F F F"
Ba       0.00000000       0.00000000       0.00000000       0.00000000       0.00000000     -30.65810013
Ba       0.00000000       0.00000000       1.70909091       0.00000000       0.00000000      30.65810013
2
Properties=species:S:1:pos:R:3:forces:R:3 energy=16.834311363814987 pbc="F F F"
Ba       0.00000000       0.00000000       0.00000000       0.00000000       0.00000000     -33.27955627
Ba       0.00000000       0.00000000       1.76868687       0.00000000       0.00000000      33.27955627
2
Properties=species:S:1:pos:R:3:forces:R:3 energy=14.833165616855256 pbc="F F F"
Ba       0.00000000       0.00000000       0.00000000       0.00000000       0.00000000     -33.46905518
Ba       0.00000000       0.00000000       1.82828283       0.00000000       0.00000000      33.46905518
2
Properties=species:S:1:pos:R:3:forces:R:3 energy=12.889026588463752 pbc="F F F"
Ba       0.00000000       0.00000000       0.00000000       0.00000000       0.00000000     -31.47150612
Ba       0.00000000       0.00000000       1.88787879       0.00000000       0.00000000      31.47150612
2
Properties=species:S:1:pos:R:3:forces:R:3 energy=11.107036998737156 pbc="F F F"
Ba       0.00000000       0.00000000       0.00000000       0.00000000       0.00000000     -28.22027206
Ba       0.00000000       0.00000000       1.94747475       0.00000000       0.00000000      28.22027206
2
Properties=species:S:1:pos:R:3:forces:R:3 energy=9.528326086632003 pbc="F F F"
Ba       0.00000000       0.00000000       0.00000000       0.00000000       0.00000000     -24.80405998
Ba       0.00000000       0.00000000       2.00707071       0.00000000       0.00000000      24.80405998
2
Properties=species:S:1:pos:R:3:forces:R:3 energy=8.140959736479537 pbc="F F F"
Ba       0.00000000       0.00000000       0.00000000       0.00000000       0.00000000     -21.85360336
Ba       0.00000000       0.00000000       2.06666667       0.00000000       0.00000000      21.85360336
2
Properties=species:S:1:pos:R:3:forces:R:3 energy=6.912049236365056 pbc="F F F"
Ba       0.00000000       0.00000000       0.00000000       0.00000000       0.00000000     -19.47394180
Ba       0.00000000       0.00000000       2.12626263       0.00000000       0.00000000      19.47394180
2
Properties=species:S:1:pos:R:3:forces:R:3 energy=5.811419567312478 pbc="F F F"
Ba       0.00000000       0.00000000       0.00000000       0.00000000       0.00000000     -17.51651573
Ba       0.00000000       0.00000000       2.18585859       0.00000000       0.00000000      17.51651573
2
Properties=species:S:1:pos:R:3:forces:R:3 energy=4.819639843208219 pbc="F F F"
Ba       0.00000000       0.00000000       0.00000000       0.00000000       0.00000000     -15.79135513
Ba       0.00000000       0.00000000       2.24545455       0.00000000       0.00000000      15.79135513
2
Properties=species:S:1:pos:R:3:forces:R:3 energy=3.9275082886564707 pbc="F F F"
Ba       0.00000000       0.00000000       0.00000000       0.00000000       0.00000000     -14.15425968
Ba       0.00000000       0.00000000       2.30505051       0.00000000       0.00000000      14.15425968
2
Properties=species:S:1:pos:R:3:forces:R:3 energy=3.132342948068113 pbc="F F F"
Ba       0.00000000       0.00000000       0.00000000       0.00000000       0.00000000     -12.53090191
Ba       0.00000000       0.00000000       2.36464646       0.00000000       0.00000000      12.53090191
2
Properties=species:S:1:pos:R:3:forces:R:3 energy=2.4337614383920356 pbc="F F F"
Ba       0.00000000       0.00000000       0.00000000       0.00000000       0.00000000     -10.91753864
Ba       0.00000000       0.00000000       2.42424242       0.00000000       0.00000000      10.91753864
2
Properties=species:S:1:pos:R:3:forces:R:3 energy=1.829925751124244 pbc="F F F"
Ba       0.00000000       0.00000000       0.00000000       0.00000000       0.00000000      -9.36178398
Ba       0.00000000       0.00000000       2.48383838       0.00000000       0.00000000       9.36178398
2
Properties=species:S:1:pos:R:3:forces:R:3 energy=1.3155425423141016 pbc="F F F"
Ba       0.00000000       0.00000000       0.00000000       0.00000000       0.00000000      -7.92471838
Ba       0.00000000       0.00000000       2.54343434       0.00000000       0.00000000       7.92471838
2
Properties=species:S:1:pos:R:3:forces:R:3 energy=0.8821856802318682 pbc="F F F"
Ba       0.00000000       0.00000000       0.00000000       0.00000000       0.00000000      -6.64657402
Ba       0.00000000       0.00000000       2.60303030       0.00000000       0.00000000       6.64657402
2
Properties=species:S:1:pos:R:3:forces:R:3 energy=0.5199771065105644 pbc="F F F"
Ba       0.00000000       0.00000000       0.00000000       0.00000000       0.00000000      -5.53611326
Ba       0.00000000       0.00000000       2.66262626       0.00000000       0.00000000       5.53611326
2
Properties=species:S:1:pos:R:3:forces:R:3 energy=0.21925085578832282 pbc="F F F"
Ba       0.00000000       0.00000000       0.00000000       0.00000000       0.00000000      -4.58003569
Ba       0.00000000       0.00000000       2.72222222       0.00000000       0.00000000       4.58003569
2
Properties=species:S:1:pos:R:3:forces:R:3 energy=-0.028566309608875712 pbc="F F F"
Ba       0.00000000       0.00000000       0.00000000       0.00000000       0.00000000      -3.75695634
Ba       0.00000000       0.00000000       2.78181818       0.00000000       0.00000000       3.75695634
2
Properties=species:S:1:pos:R:3:forces:R:3 energy=-0.2308000924064325 pbc="F F F"
Ba       0.00000000       0.00000000       0.00000000       0.00000000       0.00000000      -3.04757166
Ba       0.00000000       0.00000000       2.84141414       0.00000000       0.00000000       3.04757166
2
Properties=species:S:1:pos:R:3:forces:R:3 energy=-0.3938307918657522 pbc="F F F"
Ba       0.00000000       0.00000000       0.00000000       0.00000000       0.00000000      -2.44012356
Ba       0.00000000       0.00000000       2.90101010       0.00000000       0.00000000       2.44012356
2
Properties=species:S:1:pos:R:3:forces:R:3 energy=-0.5236074882781795 pbc="F F F"
Ba       0.00000000       0.00000000       0.00000000       0.00000000       0.00000000      -1.93180168
Ba       0.00000000       0.00000000       2.96060606       0.00000000       0.00000000       1.93180168
2
Properties=species:S:1:pos:R:3:forces:R:3 energy=-0.6261232650110488 pbc="F F F"
Ba       0.00000000       0.00000000       0.00000000       0.00000000       0.00000000      -1.52603519
Ba       0.00000000       0.00000000       3.02020202       0.00000000       0.00000000       1.52603519
2
Properties=species:S:1:pos:R:3:forces:R:3 energy=-0.7076014238063625 pbc="F F F"
Ba       0.00000000       0.00000000       0.00000000       0.00000000       0.00000000      -1.22581780
Ba       0.00000000       0.00000000       3.07979798       0.00000000       0.00000000       1.22581780
2
Properties=species:S:1:pos:R:3:forces:R:3 energy=-0.7742208043490932 pbc="F F F"
Ba       0.00000000       0.00000000       0.00000000       0.00000000       0.00000000      -1.02523386
Ba       0.00000000       0.00000000       3.13939394       0.00000000       0.00000000       1.02523386
2
Properties=species:S:1:pos:R:3:forces:R:3 energy=-0.8313848492882672 pbc="F F F"
Ba       0.00000000       0.00000000       0.00000000       0.00000000       0.00000000      -0.90385693
Ba       0.00000000       0.00000000       3.19898990       0.00000000       0.00000000       0.90385693
2
Properties=species:S:1:pos:R:3:forces:R:3 energy=-0.8828728387312923 pbc="F F F"
Ba       0.00000000       0.00000000       0.00000000       0.00000000       0.00000000      -0.82869649
Ba       0.00000000       0.00000000       3.25858586       0.00000000       0.00000000       0.82869649
2
Properties=species:S:1:pos:R:3:forces:R:3 energy=-0.9303591588569016 pbc="F F F"
Ba       0.00000000       0.00000000       0.00000000       0.00000000       0.00000000      -0.76398098
Ba       0.00000000       0.00000000       3.31818182       0.00000000       0.00000000       0.76398098
2
Properties=species:S:1:pos:R:3:forces:R:3 energy=-0.9736051462600126 pbc="F F F"
Ba       0.00000000       0.00000000       0.00000000       0.00000000       0.00000000      -0.68331492
Ba       0.00000000       0.00000000       3.37777778       0.00000000       0.00000000       0.68331492
2
Properties=species:S:1:pos:R:3:forces:R:3 energy=-1.0112857316029438 pbc="F F F"
Ba       0.00000000       0.00000000       0.00000000       0.00000000       0.00000000      -0.57709563
Ba       0.00000000       0.00000000       3.43737374       0.00000000       0.00000000       0.57709563
2
Properties=species:S:1:pos:R:3:forces:R:3 energy=-1.0420068637191342 pbc="F F F"
Ba       0.00000000       0.00000000       0.00000000       0.00000000       0.00000000      -0.45193815
Ba       0.00000000       0.00000000       3.49696970       0.00000000       0.00000000       0.45193815
2
Properties=species:S:1:pos:R:3:forces:R:3 energy=-1.0650958164459519 pbc="F F F"
Ba       0.00000000       0.00000000       0.00000000       0.00000000       0.00000000      -0.32390559
Ba       0.00000000       0.00000000       3.55656566       0.00000000       0.00000000       0.32390559
2
Properties=species:S:1:pos:R:3:forces:R:3 energy=-1.080901777255959 pbc="F F F"
Ba       0.00000000       0.00000000       0.00000000       0.00000000       0.00000000      -0.21014567
Ba       0.00000000       0.00000000       3.61616162       0.00000000       0.00000000       0.21014567
2
Properties=species:S:1:pos:R:3:forces:R:3 energy=-1.0906748666752304 pbc="F F F"
Ba       0.00000000       0.00000000       0.00000000       0.00000000       0.00000000      -0.12291786
Ba       0.00000000       0.00000000       3.67575758       0.00000000       0.00000000       0.12291786
2
Properties=species:S:1:pos:R:3:forces:R:3 energy=-1.0961885240997105 pbc="F F F"
Ba       0.00000000       0.00000000       0.00000000       0.00000000       0.00000000      -0.06748220
Ba       0.00000000       0.00000000       3.73535354       0.00000000       0.00000000       0.06748220
2
Properties=species:S:1:pos:R:3:forces:R:3 energy=-1.0993327666910337 pbc="F F F"
Ba       0.00000000       0.00000000       0.00000000       0.00000000       0.00000000      -0.04283984
Ba       0.00000000       0.00000000       3.79494949       0.00000000       0.00000000       0.04283984
2
Properties=species:S:1:pos:R:3:forces:R:3 energy=-1.1017988641346346 pbc="F F F"
Ba       0.00000000       0.00000000       0.00000000       0.00000000       0.00000000      -0.04348245
Ba       0.00000000       0.00000000       3.85454545       0.00000000       0.00000000       0.04348245
2
Properties=species:S:1:pos:R:3:forces:R:3 energy=-1.104852318458796 pbc="F F F"
Ba       0.00000000       0.00000000       0.00000000       0.00000000       0.00000000      -0.06101689
Ba       0.00000000       0.00000000       3.91414141       0.00000000       0.00000000       0.06101689
2
Properties=species:S:1:pos:R:3:forces:R:3 energy=-1.1092107742910908 pbc="F F F"
Ba       0.00000000       0.00000000       0.00000000       0.00000000       0.00000000      -0.08555492
Ba       0.00000000       0.00000000       3.97373737       0.00000000       0.00000000       0.08555492
2
Properties=species:S:1:pos:R:3:forces:R:3 energy=-1.1149897249385088 pbc="F F F"
Ba       0.00000000       0.00000000       0.00000000       0.00000000       0.00000000      -0.10708544
Ba       0.00000000       0.00000000       4.03333333       0.00000000       0.00000000       0.10708544
2
Properties=species:S:1:pos:R:3:forces:R:3 energy=-1.1217410913518777 pbc="F F F"
Ba       0.00000000       0.00000000       0.00000000       0.00000000       0.00000000      -0.11695343
Ba       0.00000000       0.00000000       4.09292929       0.00000000       0.00000000       0.11695343
2
Properties=species:S:1:pos:R:3:forces:R:3 energy=-1.1285770784179867 pbc="F F F"
Ba       0.00000000       0.00000000       0.00000000       0.00000000       0.00000000      -0.10921934
Ba       0.00000000       0.00000000       4.15252525       0.00000000       0.00000000       0.10921934
2
Properties=species:S:1:pos:R:3:forces:R:3 energy=-1.1343593959889176 pbc="F F F"
Ba       0.00000000       0.00000000       0.00000000       0.00000000       0.00000000      -0.08151138
Ba       0.00000000       0.00000000       4.21212121       0.00000000       0.00000000       0.08151138
2
Properties=species:S:1:pos:R:3:forces:R:3 energy=-1.1379201064034365 pbc="F F F"
Ba       0.00000000       0.00000000       0.00000000       0.00000000       0.00000000      -0.03515060
Ba       0.00000000       0.00000000       4.27171717       0.00000000       0.00000000       0.03515060
2
Properties=species:S:1:pos:R:3:forces:R:3 energy=-1.1382648332094596 pbc="F F F"
Ba       0.00000000       0.00000000       0.00000000       0.00000000       0.00000000       0.02544637
Ba       0.00000000       0.00000000       4.33131313       0.00000000       0.00000000      -0.02544637
2
Properties=species:S:1:pos:R:3:forces:R:3 energy=-1.1347292001673084 pbc="F F F"
Ba       0.00000000       0.00000000       0.00000000       0.00000000       0.00000000       0.09396426
Ba       0.00000000       0.00000000       4.39090909       0.00000000       0.00000000      -0.09396426
2
Properties=species:S:1:pos:R:3:forces:R:3 energy=-1.1270424601638975 pbc="F F F"
Ba       0.00000000       0.00000000       0.00000000       0.00000000       0.00000000       0.16368331
Ba       0.00000000       0.00000000       4.45050505       0.00000000       0.00000000      -0.16368331
2
Properties=species:S:1:pos:R:3:forces:R:3 energy=-1.1153069345593425 pbc="F F F"
Ba       0.00000000       0.00000000       0.00000000       0.00000000       0.00000000       0.22908910
Ba       0.00000000       0.00000000       4.51010101       0.00000000       0.00000000      -0.22908910
2
Properties=species:S:1:pos:R:3:forces:R:3 energy=-1.0998831887956748 pbc="F F F"
Ba       0.00000000       0.00000000       0.00000000       0.00000000       0.00000000       0.28724033
Ba       0.00000000       0.00000000       4.56969697       0.00000000       0.00000000      -0.28724033
2
Properties=species:S:1:pos:R:3:forces:R:3 energy=-1.0812127473421806 pbc="F F F"
Ba       0.00000000       0.00000000       0.00000000       0.00000000       0.00000000       0.33829263
Ba       0.00000000       0.00000000       4.62929293       0.00000000       0.00000000      -0.33829263
2
Properties=species:S:1:pos:R:3:forces:R:3 energy=-1.059657343889438 pbc="F F F"
Ba       0.00000000       0.00000000       0.00000000       0.00000000       0.00000000       0.38457045
Ba       0.00000000       0.00000000       4.68888889       0.00000000       0.00000000      -0.38457045
2
Properties=species:S:1:pos:R:3:forces:R:3 energy=-1.0354217007885969 pbc="F F F"
Ba       0.00000000       0.00000000       0.00000000       0.00000000       0.00000000       0.42842469
Ba       0.00000000       0.00000000       4.74848485       0.00000000       0.00000000      -0.42842469
2
Properties=species:S:1:pos:R:3:forces:R:3 energy=-1.0086273982860783 pbc="F F F"
Ba       0.00000000       0.00000000       0.00000000       0.00000000       0.00000000       0.47043473
Ba       0.00000000       0.00000000       4.80808081       0.00000000       0.00000000      -0.47043473
2
Properties=species:S:1:pos:R:3:forces:R:3 energy=-0.9794140005675503 pbc="F F F"
Ba       0.00000000       0.00000000       0.00000000       0.00000000       0.00000000       0.50915051
Ba       0.00000000       0.00000000       4.86767677       0.00000000       0.00000000      -0.50915051
2
Properties=species:S:1:pos:R:3:forces:R:3 energy=-0.9480607951426792 pbc="F F F"
Ba       0.00000000       0.00000000       0.00000000       0.00000000       0.00000000       0.54171211
Ba       0.00000000       0.00000000       4.92727273       0.00000000       0.00000000      -0.54171211
2
Properties=species:S:1:pos:R:3:forces:R:3 energy=-0.9150344426051742 pbc="F F F"
Ba       0.00000000       0.00000000       0.00000000       0.00000000       0.00000000       0.56485772
Ba       0.00000000       0.00000000       4.98686869       0.00000000       0.00000000      -0.56485772
2
Properties=species:S:1:pos:R:3:forces:R:3 energy=-0.8809545069888618 pbc="F F F"
Ba       0.00000000       0.00000000       0.00000000       0.00000000       0.00000000       0.57739568
Ba       0.00000000       0.00000000       5.04646465       0.00000000       0.00000000      -0.57739568
2
Properties=species:S:1:pos:R:3:forces:R:3 energy=-0.8463193411115151 pbc="F F F"
Ba       0.00000000       0.00000000       0.00000000       0.00000000       0.00000000       0.58515364
Ba       0.00000000       0.00000000       5.10606061       0.00000000       0.00000000      -0.58515364
2
Properties=species:S:1:pos:R:3:forces:R:3 energy=-0.8109760871105286 pbc="F F F"
Ba       0.00000000       0.00000000       0.00000000       0.00000000       0.00000000       0.60444617
Ba       0.00000000       0.00000000       5.16565657       0.00000000       0.00000000      -0.60444617
2
Properties=species:S:1:pos:R:3:forces:R:3 energy=-0.7736687012922043 pbc="F F F"
Ba       0.00000000       0.00000000       0.00000000       0.00000000       0.00000000       0.65325576
Ba       0.00000000       0.00000000       5.22525253       0.00000000       0.00000000      -0.65325576
2
Properties=species:S:1:pos:R:3:forces:R:3 energy=-0.7326000816413143 pbc="F F F"
Ba       0.00000000       0.00000000       0.00000000       0.00000000       0.00000000       0.72667044
Ba       0.00000000       0.00000000       5.28484848       0.00000000       0.00000000      -0.72667044
2
Properties=species:S:1:pos:R:3:forces:R:3 energy=-0.6873490666710332 pbc="F F F"
Ba       0.00000000       0.00000000       0.00000000       0.00000000       0.00000000       0.78516483
Ba       0.00000000       0.00000000       5.34444444       0.00000000       0.00000000      -0.78516483
2
Properties=species:S:1:pos:R:3:forces:R:3 energy=-0.6401259347739248 pbc="F F F"
Ba       0.00000000       0.00000000       0.00000000       0.00000000       0.00000000       0.78958672
Ba       0.00000000       0.00000000       5.40404040       0.00000000       0.00000000      -0.78958672
2
Properties=species:S:1:pos:R:3:forces:R:3 energy=-0.5940489473139615 pbc="F F F"
Ba       0.00000000       0.00000000       0.00000000       0.00000000       0.00000000       0.75489104
Ba       0.00000000       0.00000000       5.46363636       0.00000000       0.00000000      -0.75489104
2
Properties=species:S:1:pos:R:3:forces:R:3 energy=-0.5494244960823413 pbc="F F F"
Ba       0.00000000       0.00000000       0.00000000       0.00000000       0.00000000       0.75780416
Ba       0.00000000       0.00000000       5.52323232       0.00000000       0.00000000      -0.75780416
2
Properties=species:S:1:pos:R:3:forces:R:3 energy=-0.5013084587522113 pbc="F F F"
Ba       0.00000000       0.00000000       0.00000000       0.00000000       0.00000000       0.87994868
Ba       0.00000000       0.00000000       5.58282828       0.00000000       0.00000000      -0.87994868
2
Properties=species:S:1:pos:R:3:forces:R:3 energy=-0.44227991624254626 pbc="F F F"
Ba       0.00000000       0.00000000       0.00000000       0.00000000       0.00000000       1.11092985
Ba       0.00000000       0.00000000       5.64242424       0.00000000       0.00000000      -1.11092985
2
Properties=species:S:1:pos:R:3:forces:R:3 energy=-0.3695702149940069 pbc="F F F"
Ba       0.00000000       0.00000000       0.00000000       0.00000000       0.00000000       1.30376220
Ba       0.00000000       0.00000000       5.70202020       0.00000000       0.00000000      -1.30376220
2
Properties=species:S:1:pos:R:3:forces:R:3 energy=-0.2915320261649476 pbc="F F F"
Ba       0.00000000       0.00000000       0.00000000       0.00000000       0.00000000       1.27104878
Ba       0.00000000       0.00000000       5.76161616       0.00000000       0.00000000      -1.27104878
2
Properties=species:S:1:pos:R:3:forces:R:3 energy=-0.22362483292573554 pbc="F F F"
Ba       0.00000000       0.00000000       0.00000000       0.00000000       0.00000000       0.96750885
Ba       0.00000000       0.00000000       5.82121212       0.00000000       0.00000000      -0.96750885
2
Properties=species:S:1:pos:R:3:forces:R:3 energy=-0.17896799234552124 pbc="F F F"
Ba       0.00000000       0.00000000       0.00000000       0.00000000       0.00000000       0.53267366
Ba       0.00000000       0.00000000       5.88080808       0.00000000       0.00000000      -0.53267366
2
Properties=species:S:1:pos:R:3:forces:R:3 energy=-0.15847045983813207 pbc="F F F"
Ba       0.00000000       0.00000000       0.00000000       0.00000000       0.00000000       0.17571434
Ba       0.00000000       0.00000000       5.94040404       0.00000000       0.00000000      -0.17571434
2
Properties=species:S:1:pos:R:3:forces:R:3 energy=-0.15340794428260102 pbc="F F F"
Ba       0.00000000       0.00000000       0.00000000       0.00000000       0.00000000       0.04043264
Ba       0.00000000       0.00000000       6.00000000       0.00000000       0.00000000      -0.04043264
