2
Properties=species:S:1:pos:R:3:forces:R:3 energy=92832.33358624495 pbc="F F F"
Bi       0.00000000       0.00000000       0.00000000       0.00000000       0.00000000 -2372765.00000000
Bi       0.00000000       0.00000000       0.10000000       0.00000000       0.00000000 2372765.00000000
2
Properties=species:S:1:pos:R:3:forces:R:3 energy=25150.911711244942 pbc="F F F"
Bi       0.00000000       0.00000000       0.00000000       0.00000000       0.00000000 -480629.84375000
Bi       0.00000000       0.00000000       0.15959596       0.00000000       0.00000000  480629.84375000
2
Properties=species:S:1:pos:R:3:forces:R:3 energy=8941.411711244942 pbc="F F F"
Bi       0.00000000       0.00000000       0.00000000       0.00000000       0.00000000 -142316.89062500
Bi       0.00000000       0.00000000       0.21919192       0.00000000       0.00000000  142316.89062500
2
Properties=species:S:1:pos:R:3:forces:R:3 energy=3681.391691713691 pbc="F F F"
Bi       0.00000000       0.00000000       0.00000000       0.00000000       0.00000000  -51502.68359375
Bi       0.00000000       0.00000000       0.27878788       0.00000000       0.00000000   51502.68359375
2
Properties=species:S:1:pos:R:3:forces:R:3 energy=1671.3570237481092 pbc="F F F"
Bi       0.00000000       0.00000000       0.00000000       0.00000000       0.00000000  -20990.09570312
Bi       0.00000000       0.00000000       0.33838384       0.00000000       0.00000000   20990.09570312
2
Properties=species:S:1:pos:R:3:forces:R:3 energy=821.0650315669448 pbc="F F F"
Bi       0.00000000       0.00000000       0.00000000       0.00000000       0.00000000   -9287.15039062
Bi       0.00000000       0.00000000       0.39797980       0.00000000       0.00000000    9287.15039062
2
Properties=species:S:1:pos:R:3:forces:R:3 energy=433.70519880960853 pbc="F F F"
Bi       0.00000000       0.00000000       0.00000000       0.00000000       0.00000000   -4383.37402344
Bi       0.00000000       0.00000000       0.45757576       0.00000000       0.00000000    4383.37402344
2
Properties=species:S:1:pos:R:3:forces:R:3 energy=246.38764816310015 pbc="F F F"
Bi       0.00000000       0.00000000       0.00000000       0.00000000       0.00000000   -2181.68603516
Bi       0.00000000       0.00000000       0.51717172       0.00000000       0.00000000    2181.68603516
2
Properties=species:S:1:pos:R:3:forces:R:3 energy=151.32958849605993 pbc="F F F"
Bi       0.00000000       0.00000000       0.00000000       0.00000000       0.00000000   -1131.66967773
Bi       0.00000000       0.00000000       0.57676768       0.00000000       0.00000000    1131.66967773
2
Properties=species:S:1:pos:R:3:forces:R:3 energy=101.35038626356597 pbc="F F F"
Bi       0.00000000       0.00000000       0.00000000       0.00000000       0.00000000    -603.47387695
Bi       0.00000000       0.00000000       0.63636364       0.00000000       0.00000000     603.47387695
2
Properties=species:S:1:pos:R:3:forces:R:3 energy=74.5101611135315 pbc="F F F"
Bi       0.00000000       0.00000000       0.00000000       0.00000000       0.00000000    -325.80484009
Bi       0.00000000       0.00000000       0.69595960       0.00000000       0.00000000     325.80484009
2
Properties=species:S:1:pos:R:3:forces:R:3 energy=60.08763771953447 pbc="F F F"
Bi       0.00000000       0.00000000       0.00000000       0.00000000       0.00000000    -172.44946289
Bi       0.00000000       0.00000000       0.75555556       0.00000000       0.00000000     172.44946289
2
Properties=species:S:1:pos:R:3:forces:R:3 energy=52.715052578126894 pbc="F F F"
Bi       0.00000000       0.00000000       0.00000000       0.00000000       0.00000000     -82.65402985
Bi       0.00000000       0.00000000       0.81515152       0.00000000       0.00000000      82.65402985
2
Properties=species:S:1:pos:R:3:forces:R:3 energy=49.51187439728055 pbc="F F F"
Bi       0.00000000       0.00000000       0.00000000       0.00000000       0.00000000     -29.75987816
Bi       0.00000000       0.00000000       0.87474747       0.00000000       0.00000000      29.75987816
2
Properties=species:S:1:pos:R:3:forces:R:3 energy=48.66852526361129 pbc="F F F"
Bi       0.00000000       0.00000000       0.00000000       0.00000000       0.00000000      -2.15559244
Bi       0.00000000       0.00000000       0.93434343       0.00000000       0.00000000       2.15559244
2
Properties=species:S:1:pos:R:3:forces:R:3 energy=48.88320161359453 pbc="F F F"
Bi       0.00000000       0.00000000       0.00000000       0.00000000       0.00000000       6.73634338
Bi       0.00000000       0.00000000       0.99393939       0.00000000       0.00000000      -6.73634338
2
Properties=species:S:1:pos:R:3:forces:R:3 energy=49.217053076076446 pbc="F F F"
Bi       0.00000000       0.00000000       0.00000000       0.00000000       0.00000000       2.79232192
Bi       0.00000000       0.00000000       1.05353535       0.00000000       0.00000000      -2.79232192
2
Properties=species:S:1:pos:R:3:forces:R:3 energy=49.067067613613425 pbc="F F F"
Bi       0.00000000       0.00000000       0.00000000       0.00000000       0.00000000      -8.65435600
Bi       0.00000000       0.00000000       1.11313131       0.00000000       0.00000000       8.65435600
2
Properties=species:S:1:pos:R:3:forces:R:3 energy=48.140089603556795 pbc="F F F"
Bi       0.00000000       0.00000000       0.00000000       0.00000000       0.00000000     -22.32781410
Bi       0.00000000       0.00000000       1.17272727       0.00000000       0.00000000      22.32781410
2
Properties=species:S:1:pos:R:3:forces:R:3 energy=46.487213177110064 pbc="F F F"
Bi       0.00000000       0.00000000       0.00000000       0.00000000       0.00000000     -32.09793091
Bi       0.00000000       0.00000000       1.23232323       0.00000000       0.00000000      32.09793091
2
Properties=species:S:1:pos:R:3:forces:R:3 energy=44.38182249186796 pbc="F F F"
Bi       0.00000000       0.00000000       0.00000000       0.00000000       0.00000000     -38.98120117
Bi       0.00000000       0.00000000       1.29191919       0.00000000       0.00000000      38.98120117
2
Properties=species:S:1:pos:R:3:forces:R:3 energy=41.71466851520361 pbc="F F F"
Bi       0.00000000       0.00000000       0.00000000       0.00000000       0.00000000     -51.48366165
Bi       0.00000000       0.00000000       1.35151515       0.00000000       0.00000000      51.48366165
2
Properties=species:S:1:pos:R:3:forces:R:3 energy=38.21766969295175 pbc="F F F"
Bi       0.00000000       0.00000000       0.00000000       0.00000000       0.00000000     -65.41635895
Bi       0.00000000       0.00000000       1.41111111       0.00000000       0.00000000      65.41635895
2
Properties=species:S:1:pos:R:3:forces:R:3 energy=34.022471341790684 pbc="F F F"
Bi       0.00000000       0.00000000       0.00000000       0.00000000       0.00000000     -74.22479248
Bi       0.00000000       0.00000000       1.47070707       0.00000000       0.00000000      74.22479248
2
Properties=species:S:1:pos:R:3:forces:R:3 energy=29.512793999053805 pbc="F F F"
Bi       0.00000000       0.00000000       0.00000000       0.00000000       0.00000000     -76.05771637
Bi       0.00000000       0.00000000       1.53030303       0.00000000       0.00000000      76.05771637
2
Properties=species:S:1:pos:R:3:forces:R:3 energy=25.039433556310538 pbc="F F F"
Bi       0.00000000       0.00000000       0.00000000       0.00000000       0.00000000     -73.76395416
Bi       0.00000000       0.00000000       1.58989899       0.00000000       0.00000000      73.76395416
2
Properties=species:S:1:pos:R:3:forces:R:3 energy=20.736402425920257 pbc="F F F"
Bi       0.00000000       0.00000000       0.00000000       0.00000000       0.00000000     -70.50423431
Bi       0.00000000       0.00000000       1.64949495       0.00000000       0.00000000      70.50423431
2
Properties=species:S:1:pos:R:3:forces:R:3 energy=16.66178338485434 pbc="F F F"
Bi       0.00000000       0.00000000       0.00000000       0.00000000       0.00000000     -65.98448181
Bi       0.00000000       0.00000000       1.70909091       0.00000000       0.00000000      65.98448181
2
Properties=species:S:1:pos:R:3:forces:R:3 energy=12.899561986702475 pbc="F F F"
Bi       0.00000000       0.00000000       0.00000000       0.00000000       0.00000000     -60.07014465
Bi       0.00000000       0.00000000       1.76868687       0.00000000       0.00000000      60.07014465
2
Properties=species:S:1:pos:R:3:forces:R:3 energy=9.521365163937551 pbc="F F F"
Bi       0.00000000       0.00000000       0.00000000       0.00000000       0.00000000     -53.18146133
Bi       0.00000000       0.00000000       1.82828283       0.00000000       0.00000000      53.18146133
2
Properties=species:S:1:pos:R:3:forces:R:3 energy=6.569143417990175 pbc="F F F"
Bi       0.00000000       0.00000000       0.00000000       0.00000000       0.00000000     -45.87048721
Bi       0.00000000       0.00000000       1.88787879       0.00000000       0.00000000      45.87048721
2
Properties=species:S:1:pos:R:3:forces:R:3 energy=4.051757701233625 pbc="F F F"
Bi       0.00000000       0.00000000       0.00000000       0.00000000       0.00000000     -38.66476822
Bi       0.00000000       0.00000000       1.94747475       0.00000000       0.00000000      38.66476822
2
Properties=species:S:1:pos:R:3:forces:R:3 energy=1.9512084556549723 pbc="F F F"
Bi       0.00000000       0.00000000       0.00000000       0.00000000       0.00000000     -31.92752266
Bi       0.00000000       0.00000000       2.00707071       0.00000000       0.00000000      31.92752266
2
Properties=species:S:1:pos:R:3:forces:R:3 energy=0.23249696091472427 pbc="F F F"
Bi       0.00000000       0.00000000       0.00000000       0.00000000       0.00000000     -25.87935066
Bi       0.00000000       0.00000000       2.06666667       0.00000000       0.00000000      25.87935066
2
Properties=species:S:1:pos:R:3:forces:R:3 energy=-1.1494464918412863 pbc="F F F"
Bi       0.00000000       0.00000000       0.00000000       0.00000000       0.00000000     -20.63545990
Bi       0.00000000       0.00000000       2.12626263       0.00000000       0.00000000      20.63545990
2
Properties=species:S:1:pos:R:3:forces:R:3 energy=-2.2433675174415937 pbc="F F F"
Bi       0.00000000       0.00000000       0.00000000       0.00000000       0.00000000     -16.20902061
Bi       0.00000000       0.00000000       2.18585859       0.00000000       0.00000000      16.20902061
2
Properties=species:S:1:pos:R:3:forces:R:3 energy=-3.096596421008386 pbc="F F F"
Bi       0.00000000       0.00000000       0.00000000       0.00000000       0.00000000     -12.54530621
Bi       0.00000000       0.00000000       2.24545455       0.00000000       0.00000000      12.54530621
2
Properties=species:S:1:pos:R:3:forces:R:3 energy=-3.7521631010674428 pbc="F F F"
Bi       0.00000000       0.00000000       0.00000000       0.00000000       0.00000000      -9.55989456
Bi       0.00000000       0.00000000       2.30505051       0.00000000       0.00000000       9.55989456
2
Properties=species:S:1:pos:R:3:forces:R:3 energy=-4.247420903845204 pbc="F F F"
Bi       0.00000000       0.00000000       0.00000000       0.00000000       0.00000000      -7.14582157
Bi       0.00000000       0.00000000       2.36464646       0.00000000       0.00000000       7.14582157
2
Properties=species:S:1:pos:R:3:forces:R:3 energy=-4.612818503825241 pbc="F F F"
Bi       0.00000000       0.00000000       0.00000000       0.00000000       0.00000000      -5.18168306
Bi       0.00000000       0.00000000       2.42424242       0.00000000       0.00000000       5.18168306
2
Properties=species:S:1:pos:R:3:forces:R:3 energy=-4.871754274345935 pbc="F F F"
Bi       0.00000000       0.00000000       0.00000000       0.00000000       0.00000000      -3.55702567
Bi       0.00000000       0.00000000       2.48383838       0.00000000       0.00000000       3.55702567
2
Properties=species:S:1:pos:R:3:forces:R:3 energy=-5.042021492327974 pbc="F F F"
Bi       0.00000000       0.00000000       0.00000000       0.00000000       0.00000000      -2.19727755
Bi       0.00000000       0.00000000       2.54343434       0.00000000       0.00000000       2.19727755
2
Properties=species:S:1:pos:R:3:forces:R:3 energy=-5.138238195062501 pbc="F F F"
Bi       0.00000000       0.00000000       0.00000000       0.00000000       0.00000000      -1.06930363
Bi       0.00000000       0.00000000       2.60303030       0.00000000       0.00000000       1.06930363
2
Properties=species:S:1:pos:R:3:forces:R:3 energy=-5.173920846809657 pbc="F F F"
Bi       0.00000000       0.00000000       0.00000000       0.00000000       0.00000000      -0.16523567
Bi       0.00000000       0.00000000       2.66262626       0.00000000       0.00000000       0.16523567
2
Properties=species:S:1:pos:R:3:forces:R:3 energy=-5.162239232208639 pbc="F F F"
Bi       0.00000000       0.00000000       0.00000000       0.00000000       0.00000000       0.52273035
Bi       0.00000000       0.00000000       2.72222222       0.00000000       0.00000000      -0.52273035
2
Properties=species:S:1:pos:R:3:forces:R:3 energy=-5.115429469735944 pbc="F F F"
Bi       0.00000000       0.00000000       0.00000000       0.00000000       0.00000000       1.01931906
Bi       0.00000000       0.00000000       2.78181818       0.00000000       0.00000000      -1.01931906
2
Properties=species:S:1:pos:R:3:forces:R:3 energy=-5.043742096263096 pbc="F F F"
Bi       0.00000000       0.00000000       0.00000000       0.00000000       0.00000000       1.36504292
Bi       0.00000000       0.00000000       2.84141414       0.00000000       0.00000000      -1.36504292
2
Properties=species:S:1:pos:R:3:forces:R:3 energy=-4.954874201518548 pbc="F F F"
Bi       0.00000000       0.00000000       0.00000000       0.00000000       0.00000000       1.60233212
Bi       0.00000000       0.00000000       2.90101010       0.00000000       0.00000000      -1.60233212
2
Properties=species:S:1:pos:R:3:forces:R:3 energy=-4.854265989121867 pbc="F F F"
Bi       0.00000000       0.00000000       0.00000000       0.00000000       0.00000000       1.76321363
Bi       0.00000000       0.00000000       2.96060606       0.00000000       0.00000000      -1.76321363
2
Properties=species:S:1:pos:R:3:forces:R:3 energy=-4.745842839740031 pbc="F F F"
Bi       0.00000000       0.00000000       0.00000000       0.00000000       0.00000000       1.86693525
Bi       0.00000000       0.00000000       3.02020202       0.00000000       0.00000000      -1.86693525
2
Properties=species:S:1:pos:R:3:forces:R:3 energy=-4.63265182216936 pbc="F F F"
Bi       0.00000000       0.00000000       0.00000000       0.00000000       0.00000000       1.92475235
Bi       0.00000000       0.00000000       3.07979798       0.00000000       0.00000000      -1.92475235
2
Properties=species:S:1:pos:R:3:forces:R:3 energy=-4.5171813991468905 pbc="F F F"
Bi       0.00000000       0.00000000       0.00000000       0.00000000       0.00000000       1.94461107
Bi       0.00000000       0.00000000       3.13939394       0.00000000       0.00000000      -1.94461107
2
Properties=species:S:1:pos:R:3:forces:R:3 energy=-4.401498526704902 pbc="F F F"
Bi       0.00000000       0.00000000       0.00000000       0.00000000       0.00000000       1.93279123
Bi       0.00000000       0.00000000       3.19898990       0.00000000       0.00000000      -1.93279123
2
Properties=species:S:1:pos:R:3:forces:R:3 energy=-4.287344626656591 pbc="F F F"
Bi       0.00000000       0.00000000       0.00000000       0.00000000       0.00000000       1.89390886
Bi       0.00000000       0.00000000       3.25858586       0.00000000       0.00000000      -1.89390886
2
Properties=species:S:1:pos:R:3:forces:R:3 energy=-4.176228458808295 pbc="F F F"
Bi       0.00000000       0.00000000       0.00000000       0.00000000       0.00000000       1.83145642
Bi       0.00000000       0.00000000       3.31818182       0.00000000       0.00000000      -1.83145642
2
Properties=species:S:1:pos:R:3:forces:R:3 energy=-4.0694459245489005 pbc="F F F"
Bi       0.00000000       0.00000000       0.00000000       0.00000000       0.00000000       1.74917746
Bi       0.00000000       0.00000000       3.37777778       0.00000000       0.00000000      -1.74917746
2
Properties=species:S:1:pos:R:3:forces:R:3 energy=-3.968036343551107 pbc="F F F"
Bi       0.00000000       0.00000000       0.00000000       0.00000000       0.00000000       1.65203083
Bi       0.00000000       0.00000000       3.43737374       0.00000000       0.00000000      -1.65203083
2
Properties=species:S:1:pos:R:3:forces:R:3 energy=-3.87271136666862 pbc="F F F"
Bi       0.00000000       0.00000000       0.00000000       0.00000000       0.00000000       1.54607987
Bi       0.00000000       0.00000000       3.49696970       0.00000000       0.00000000      -1.54607987
2
Properties=species:S:1:pos:R:3:forces:R:3 energy=-3.7838069276955992 pbc="F F F"
Bi       0.00000000       0.00000000       0.00000000       0.00000000       0.00000000       1.43754053
Bi       0.00000000       0.00000000       3.55656566       0.00000000       0.00000000      -1.43754053
2
Properties=species:S:1:pos:R:3:forces:R:3 energy=-3.7013118593542353 pbc="F F F"
Bi       0.00000000       0.00000000       0.00000000       0.00000000       0.00000000       1.33178246
Bi       0.00000000       0.00000000       3.61616162       0.00000000       0.00000000      -1.33178246
2
Properties=species:S:1:pos:R:3:forces:R:3 energy=-3.6249369086418755 pbc="F F F"
Bi       0.00000000       0.00000000       0.00000000       0.00000000       0.00000000       1.23264766
Bi       0.00000000       0.00000000       3.67575758       0.00000000       0.00000000      -1.23264766
2
Properties=species:S:1:pos:R:3:forces:R:3 energy=-3.554214185187662 pbc="F F F"
Bi       0.00000000       0.00000000       0.00000000       0.00000000       0.00000000       1.14235246
Bi       0.00000000       0.00000000       3.73535354       0.00000000       0.00000000      -1.14235246
2
Properties=species:S:1:pos:R:3:forces:R:3 energy=-3.4885808266254723 pbc="F F F"
Bi       0.00000000       0.00000000       0.00000000       0.00000000       0.00000000       1.06193471
Bi       0.00000000       0.00000000       3.79494949       0.00000000       0.00000000      -1.06193471
2
Properties=species:S:1:pos:R:3:forces:R:3 energy=-3.427438358484469 pbc="F F F"
Bi       0.00000000       0.00000000       0.00000000       0.00000000       0.00000000       0.99163300
Bi       0.00000000       0.00000000       3.85454545       0.00000000       0.00000000      -0.99163300
2
Properties=species:S:1:pos:R:3:forces:R:3 energy=-3.3701942764869472 pbc="F F F"
Bi       0.00000000       0.00000000       0.00000000       0.00000000       0.00000000       0.93096995
Bi       0.00000000       0.00000000       3.91414141       0.00000000       0.00000000      -0.93096995
2
Properties=species:S:1:pos:R:3:forces:R:3 energy=-3.3163063936828436 pbc="F F F"
Bi       0.00000000       0.00000000       0.00000000       0.00000000       0.00000000       0.87872756
Bi       0.00000000       0.00000000       3.97373737       0.00000000       0.00000000      -0.87872756
2
Properties=species:S:1:pos:R:3:forces:R:3 energy=-3.2653262797960996 pbc="F F F"
Bi       0.00000000       0.00000000       0.00000000       0.00000000       0.00000000       0.83309114
Bi       0.00000000       0.00000000       4.03333333       0.00000000       0.00000000      -0.83309114
2
Properties=species:S:1:pos:R:3:forces:R:3 energy=-3.2169205351630934 pbc="F F F"
Bi       0.00000000       0.00000000       0.00000000       0.00000000       0.00000000       0.79190701
Bi       0.00000000       0.00000000       4.09292929       0.00000000       0.00000000      -0.79190701
2
Properties=species:S:1:pos:R:3:forces:R:3 energy=-3.170890637167574 pbc="F F F"
Bi       0.00000000       0.00000000       0.00000000       0.00000000       0.00000000       0.75304043
Bi       0.00000000       0.00000000       4.15252525       0.00000000       0.00000000      -0.75304043
2
Properties=species:S:1:pos:R:3:forces:R:3 energy=-3.1271549581489864 pbc="F F F"
Bi       0.00000000       0.00000000       0.00000000       0.00000000       0.00000000       0.71466798
Bi       0.00000000       0.00000000       4.21212121       0.00000000       0.00000000      -0.71466798
2
Properties=species:S:1:pos:R:3:forces:R:3 energy=-3.08572423513539 pbc="F F F"
Bi       0.00000000       0.00000000       0.00000000       0.00000000       0.00000000       0.67548919
Bi       0.00000000       0.00000000       4.27171717       0.00000000       0.00000000      -0.67548919
2
Properties=species:S:1:pos:R:3:forces:R:3 energy=-3.046672074799816 pbc="F F F"
Bi       0.00000000       0.00000000       0.00000000       0.00000000       0.00000000       0.63481784
Bi       0.00000000       0.00000000       4.33131313       0.00000000       0.00000000      -0.63481784
2
Properties=species:S:1:pos:R:3:forces:R:3 energy=-3.0100912903501547 pbc="F F F"
Bi       0.00000000       0.00000000       0.00000000       0.00000000       0.00000000       0.59255856
Bi       0.00000000       0.00000000       4.39090909       0.00000000       0.00000000      -0.59255856
2
Properties=species:S:1:pos:R:3:forces:R:3 energy=-2.976067471912918 pbc="F F F"
Bi       0.00000000       0.00000000       0.00000000       0.00000000       0.00000000       0.54910654
Bi       0.00000000       0.00000000       4.45050505       0.00000000       0.00000000      -0.54910654
2
Properties=species:S:1:pos:R:3:forces:R:3 energy=-2.944651949367218 pbc="F F F"
Bi       0.00000000       0.00000000       0.00000000       0.00000000       0.00000000       0.50519270
Bi       0.00000000       0.00000000       4.51010101       0.00000000       0.00000000      -0.50519270
2
Properties=species:S:1:pos:R:3:forces:R:3 energy=-2.915843997314452 pbc="F F F"
Bi       0.00000000       0.00000000       0.00000000       0.00000000       0.00000000       0.46170193
Bi       0.00000000       0.00000000       4.56969697       0.00000000       0.00000000      -0.46170193
2
Properties=species:S:1:pos:R:3:forces:R:3 energy=-2.8895938513245354 pbc="F F F"
Bi       0.00000000       0.00000000       0.00000000       0.00000000       0.00000000       0.41953433
Bi       0.00000000       0.00000000       4.62929293       0.00000000       0.00000000      -0.41953433
2
Properties=species:S:1:pos:R:3:forces:R:3 energy=-2.8657970374070763 pbc="F F F"
Bi       0.00000000       0.00000000       0.00000000       0.00000000       0.00000000       0.37950268
Bi       0.00000000       0.00000000       4.68888889       0.00000000       0.00000000      -0.37950268
2
Properties=species:S:1:pos:R:3:forces:R:3 energy=-2.844304894107076 pbc="F F F"
Bi       0.00000000       0.00000000       0.00000000       0.00000000       0.00000000       0.34224966
Bi       0.00000000       0.00000000       4.74848485       0.00000000       0.00000000      -0.34224966
2
Properties=species:S:1:pos:R:3:forces:R:3 energy=-2.824939218240485 pbc="F F F"
Bi       0.00000000       0.00000000       0.00000000       0.00000000       0.00000000       0.30823404
Bi       0.00000000       0.00000000       4.80808081       0.00000000       0.00000000      -0.30823404
2
Properties=species:S:1:pos:R:3:forces:R:3 energy=-2.807496791679378 pbc="F F F"
Bi       0.00000000       0.00000000       0.00000000       0.00000000       0.00000000       0.27768487
Bi       0.00000000       0.00000000       4.86767677       0.00000000       0.00000000      -0.27768487
2
Properties=species:S:1:pos:R:3:forces:R:3 energy=-2.7917716944959086 pbc="F F F"
Bi       0.00000000       0.00000000       0.00000000       0.00000000       0.00000000       0.25059074
Bi       0.00000000       0.00000000       4.92727273       0.00000000       0.00000000      -0.25059074
2
Properties=species:S:1:pos:R:3:forces:R:3 energy=-2.777565005680227 pbc="F F F"
Bi       0.00000000       0.00000000       0.00000000       0.00000000       0.00000000       0.22667654
Bi       0.00000000       0.00000000       4.98686869       0.00000000       0.00000000      -0.22667654
2
Properties=species:S:1:pos:R:3:forces:R:3 energy=-2.7647017118526667 pbc="F F F"
Bi       0.00000000       0.00000000       0.00000000       0.00000000       0.00000000       0.20545314
Bi       0.00000000       0.00000000       5.04646465       0.00000000       0.00000000      -0.20545314
2
Properties=species:S:1:pos:R:3:forces:R:3 energy=-2.7530353394189735 pbc="F F F"
Bi       0.00000000       0.00000000       0.00000000       0.00000000       0.00000000       0.18636785
Bi       0.00000000       0.00000000       5.10606061       0.00000000       0.00000000      -0.18636785
2
Properties=species:S:1:pos:R:3:forces:R:3 energy=-2.7424494120082668 pbc="F F F"
Bi       0.00000000       0.00000000       0.00000000       0.00000000       0.00000000       0.16915327
Bi       0.00000000       0.00000000       5.16565657       0.00000000       0.00000000      -0.16915327
2
Properties=species:S:1:pos:R:3:forces:R:3 energy=-2.7328278643944777 pbc="F F F"
Bi       0.00000000       0.00000000       0.00000000       0.00000000       0.00000000       0.15421058
Bi       0.00000000       0.00000000       5.22525253       0.00000000       0.00000000      -0.15421058
2
Properties=species:S:1:pos:R:3:forces:R:3 energy=-2.7240070205755513 pbc="F F F"
Bi       0.00000000       0.00000000       0.00000000       0.00000000       0.00000000       0.14238946
Bi       0.00000000       0.00000000       5.28484848       0.00000000       0.00000000      -0.14238946
2
Properties=species:S:1:pos:R:3:forces:R:3 energy=-2.7157909095833084 pbc="F F F"
Bi       0.00000000       0.00000000       0.00000000       0.00000000       0.00000000       0.13377684
Bi       0.00000000       0.00000000       5.34444444       0.00000000       0.00000000      -0.13377684
2
Properties=species:S:1:pos:R:3:forces:R:3 energy=-2.7080263245702616 pbc="F F F"
Bi       0.00000000       0.00000000       0.00000000       0.00000000       0.00000000       0.12691893
Bi       0.00000000       0.00000000       5.40404040       0.00000000       0.00000000      -0.12691893
2
Properties=species:S:1:pos:R:3:forces:R:3 energy=-2.7006634064712873 pbc="F F F"
Bi       0.00000000       0.00000000       0.00000000       0.00000000       0.00000000       0.12001564
Bi       0.00000000       0.00000000       5.46363636       0.00000000       0.00000000      -0.12001564
2
Properties=species:S:1:pos:R:3:forces:R:3 energy=-2.6937389547030857 pbc="F F F"
Bi       0.00000000       0.00000000       0.00000000       0.00000000       0.00000000       0.11237857
Bi       0.00000000       0.00000000       5.52323232       0.00000000       0.00000000      -0.11237857
2
Properties=species:S:1:pos:R:3:forces:R:3 energy=-2.6872760862045135 pbc="F F F"
Bi       0.00000000       0.00000000       0.00000000       0.00000000       0.00000000       0.10446343
Bi       0.00000000       0.00000000       5.58282828       0.00000000       0.00000000      -0.10446343
2
Properties=species:S:1:pos:R:3:forces:R:3 energy=-2.6813011615717883 pbc="F F F"
Bi       0.00000000       0.00000000       0.00000000       0.00000000       0.00000000       0.09578228
Bi       0.00000000       0.00000000       5.64242424       0.00000000       0.00000000      -0.09578228
2
Properties=species:S:1:pos:R:3:forces:R:3 energy=-2.6759232212109287 pbc="F F F"
Bi       0.00000000       0.00000000       0.00000000       0.00000000       0.00000000       0.08379062
Bi       0.00000000       0.00000000       5.70202020       0.00000000       0.00000000      -0.08379062
2
Properties=species:S:1:pos:R:3:forces:R:3 energy=-2.6714186698667555 pbc="F F F"
Bi       0.00000000       0.00000000       0.00000000       0.00000000       0.00000000       0.06677026
Bi       0.00000000       0.00000000       5.76161616       0.00000000       0.00000000      -0.06677026
2
Properties=species:S:1:pos:R:3:forces:R:3 energy=-2.6680266881394465 pbc="F F F"
Bi       0.00000000       0.00000000       0.00000000       0.00000000       0.00000000       0.04682104
Bi       0.00000000       0.00000000       5.82121212       0.00000000       0.00000000      -0.04682104
2
Properties=species:S:1:pos:R:3:forces:R:3 energy=-2.6658120047532834 pbc="F F F"
Bi       0.00000000       0.00000000       0.00000000       0.00000000       0.00000000       0.02829872
Bi       0.00000000       0.00000000       5.88080808       0.00000000       0.00000000      -0.02829872
2
Properties=species:S:1:pos:R:3:forces:R:3 energy=-2.66454137355792 pbc="F F F"
Bi       0.00000000       0.00000000       0.00000000       0.00000000       0.00000000       0.01525337
Bi       0.00000000       0.00000000       5.94040404       0.00000000       0.00000000      -0.01525337
2
Properties=species:S:1:pos:R:3:forces:R:3 energy=-2.663829522128749 pbc="F F F"
Bi       0.00000000       0.00000000       0.00000000       0.00000000       0.00000000       0.01019728
Bi       0.00000000       0.00000000       6.00000000       0.00000000       0.00000000      -0.01019728
