2
Properties=species:S:1:pos:R:3:forces:R:3 energy=9651.595128694982 pbc="F F F"
Ca       0.00000000       0.00000000       0.00000000       0.00000000       0.00000000 -209397.45312500
Ca       0.00000000       0.00000000       0.10000000       0.00000000       0.00000000  209397.45312500
2
Properties=species:S:1:pos:R:3:forces:R:3 energy=3186.4735466637317 pbc="F F F"
Ca       0.00000000       0.00000000       0.00000000       0.00000000       0.00000000  -51518.78515625
Ca       0.00000000       0.00000000       0.15959596       0.00000000       0.00000000   51518.78515625
2
Properties=species:S:1:pos:R:3:forces:R:3 energy=1339.9287468590444 pbc="F F F"
Ca       0.00000000       0.00000000       0.00000000       0.00000000       0.00000000  -17625.60351562
Ca       0.00000000       0.00000000       0.21919192       0.00000000       0.00000000   17625.60351562
2
Properties=species:S:1:pos:R:3:forces:R:3 energy=650.5625359215444 pbc="F F F"
Ca       0.00000000       0.00000000       0.00000000       0.00000000       0.00000000   -7296.74804688
Ca       0.00000000       0.00000000       0.27878788       0.00000000       0.00000000    7296.74804688
2
Properties=species:S:1:pos:R:3:forces:R:3 energy=348.35541311880996 pbc="F F F"
Ca       0.00000000       0.00000000       0.00000000       0.00000000       0.00000000   -3414.92333984
Ca       0.00000000       0.00000000       0.33838384       0.00000000       0.00000000    3414.92333984
2
Properties=species:S:1:pos:R:3:forces:R:3 energy=201.35106437659846 pbc="F F F"
Ca       0.00000000       0.00000000       0.00000000       0.00000000       0.00000000   -1734.23071289
Ca       0.00000000       0.00000000       0.39797980       0.00000000       0.00000000    1734.23071289
2
Properties=species:S:1:pos:R:3:forces:R:3 energy=124.67442101768772 pbc="F F F"
Ca       0.00000000       0.00000000       0.00000000       0.00000000       0.00000000    -931.58245850
Ca       0.00000000       0.00000000       0.45757576       0.00000000       0.00000000     931.58245850
2
Properties=species:S:1:pos:R:3:forces:R:3 energy=82.70075008355764 pbc="F F F"
Ca       0.00000000       0.00000000       0.00000000       0.00000000       0.00000000    -520.48773193
Ca       0.00000000       0.00000000       0.51717172       0.00000000       0.00000000     520.48773193
2
Properties=species:S:1:pos:R:3:forces:R:3 energy=58.946985028041624 pbc="F F F"
Ca       0.00000000       0.00000000       0.00000000       0.00000000       0.00000000    -298.43688965
Ca       0.00000000       0.00000000       0.57676768       0.00000000       0.00000000     298.43688965
2
Properties=species:S:1:pos:R:3:forces:R:3 energy=45.23598275421584 pbc="F F F"
Ca       0.00000000       0.00000000       0.00000000       0.00000000       0.00000000    -173.16711426
Ca       0.00000000       0.00000000       0.63636364       0.00000000       0.00000000     173.16711426
2
Properties=species:S:1:pos:R:3:forces:R:3 energy=37.28361319098732 pbc="F F F"
Ca       0.00000000       0.00000000       0.00000000       0.00000000       0.00000000    -100.10917664
Ca       0.00000000       0.00000000       0.69595960       0.00000000       0.00000000     100.10917664
2
Properties=species:S:1:pos:R:3:forces:R:3 energy=32.7127058009545 pbc="F F F"
Ca       0.00000000       0.00000000       0.00000000       0.00000000       0.00000000     -57.14139175
Ca       0.00000000       0.00000000       0.75555556       0.00000000       0.00000000      57.14139175
2
Properties=species:S:1:pos:R:3:forces:R:3 energy=30.10785724337109 pbc="F F F"
Ca       0.00000000       0.00000000       0.00000000       0.00000000       0.00000000     -32.65340805
Ca       0.00000000       0.00000000       0.81515152       0.00000000       0.00000000      32.65340805
2
Properties=species:S:1:pos:R:3:forces:R:3 energy=28.60702988488826 pbc="F F F"
Ca       0.00000000       0.00000000       0.00000000       0.00000000       0.00000000     -18.98735619
Ca       0.00000000       0.00000000       0.87474747       0.00000000       0.00000000      18.98735619
2
Properties=species:S:1:pos:R:3:forces:R:3 energy=27.73603783258765 pbc="F F F"
Ca       0.00000000       0.00000000       0.00000000       0.00000000       0.00000000     -10.92002773
Ca       0.00000000       0.00000000       0.93434343       0.00000000       0.00000000      10.92002773
2
Properties=species:S:1:pos:R:3:forces:R:3 energy=27.234022601387817 pbc="F F F"
Ca       0.00000000       0.00000000       0.00000000       0.00000000       0.00000000      -6.51150370
Ca       0.00000000       0.00000000       0.99393939       0.00000000       0.00000000       6.51150370
2
Properties=species:S:1:pos:R:3:forces:R:3 energy=26.887483303425274 pbc="F F F"
Ca       0.00000000       0.00000000       0.00000000       0.00000000       0.00000000      -5.75098610
Ca       0.00000000       0.00000000       1.05353535       0.00000000       0.00000000       5.75098610
2
Properties=species:S:1:pos:R:3:forces:R:3 energy=26.47179918296467 pbc="F F F"
Ca       0.00000000       0.00000000       0.00000000       0.00000000       0.00000000      -8.83011627
Ca       0.00000000       0.00000000       1.11313131       0.00000000       0.00000000       8.83011627
2
Properties=species:S:1:pos:R:3:forces:R:3 energy=25.767707264594087 pbc="F F F"
Ca       0.00000000       0.00000000       0.00000000       0.00000000       0.00000000     -15.25715828
Ca       0.00000000       0.00000000       1.17272727       0.00000000       0.00000000      15.25715828
2
Properties=species:S:1:pos:R:3:forces:R:3 energy=24.615772402809615 pbc="F F F"
Ca       0.00000000       0.00000000       0.00000000       0.00000000       0.00000000     -23.56872368
Ca       0.00000000       0.00000000       1.23232323       0.00000000       0.00000000      23.56872368
2
Properties=species:S:1:pos:R:3:forces:R:3 energy=22.954583833064763 pbc="F F F"
Ca       0.00000000       0.00000000       0.00000000       0.00000000       0.00000000     -32.08884811
Ca       0.00000000       0.00000000       1.29191919       0.00000000       0.00000000      32.08884811
2
Properties=species:S:1:pos:R:3:forces:R:3 energy=20.815998256951517 pbc="F F F"
Ca       0.00000000       0.00000000       0.00000000       0.00000000       0.00000000     -39.35161972
Ca       0.00000000       0.00000000       1.35151515       0.00000000       0.00000000      39.35161972
2
Properties=species:S:1:pos:R:3:forces:R:3 energy=18.317922434973777 pbc="F F F"
Ca       0.00000000       0.00000000       0.00000000       0.00000000       0.00000000     -43.90226746
Ca       0.00000000       0.00000000       1.41111111       0.00000000       0.00000000      43.90226746
2
Properties=species:S:1:pos:R:3:forces:R:3 energy=15.668519843957027 pbc="F F F"
Ca       0.00000000       0.00000000       0.00000000       0.00000000       0.00000000     -44.17469025
Ca       0.00000000       0.00000000       1.47070707       0.00000000       0.00000000      44.17469025
2
Properties=species:S:1:pos:R:3:forces:R:3 energy=13.153542092771756 pbc="F F F"
Ca       0.00000000       0.00000000       0.00000000       0.00000000       0.00000000     -39.50615692
Ca       0.00000000       0.00000000       1.53030303       0.00000000       0.00000000      39.50615692
2
Properties=species:S:1:pos:R:3:forces:R:3 energy=11.007021175446281 pbc="F F F"
Ca       0.00000000       0.00000000       0.00000000       0.00000000       0.00000000     -32.49823380
Ca       0.00000000       0.00000000       1.58989899       0.00000000       0.00000000      32.49823380
2
Properties=species:S:1:pos:R:3:forces:R:3 energy=9.253586035312715 pbc="F F F"
Ca       0.00000000       0.00000000       0.00000000       0.00000000       0.00000000     -26.68551254
Ca       0.00000000       0.00000000       1.64949495       0.00000000       0.00000000      26.68551254
2
Properties=species:S:1:pos:R:3:forces:R:3 energy=7.790410495217187 pbc="F F F"
Ca       0.00000000       0.00000000       0.00000000       0.00000000       0.00000000     -22.63465118
Ca       0.00000000       0.00000000       1.70909091       0.00000000       0.00000000      22.63465118
2
Properties=species:S:1:pos:R:3:forces:R:3 energy=6.540229233871301 pbc="F F F"
Ca       0.00000000       0.00000000       0.00000000       0.00000000       0.00000000     -19.38481140
Ca       0.00000000       0.00000000       1.76868687       0.00000000       0.00000000      19.38481140
2
Properties=species:S:1:pos:R:3:forces:R:3 energy=5.4758921145043855 pbc="F F F"
Ca       0.00000000       0.00000000       0.00000000       0.00000000       0.00000000     -16.35574532
Ca       0.00000000       0.00000000       1.82828283       0.00000000       0.00000000      16.35574532
2
Properties=species:S:1:pos:R:3:forces:R:3 energy=4.5874147118890765 pbc="F F F"
Ca       0.00000000       0.00000000       0.00000000       0.00000000       0.00000000     -13.49903584
Ca       0.00000000       0.00000000       1.88787879       0.00000000       0.00000000      13.49903584
2
Properties=species:S:1:pos:R:3:forces:R:3 energy=3.8610497544056472 pbc="F F F"
Ca       0.00000000       0.00000000       0.00000000       0.00000000       0.00000000     -10.93626499
Ca       0.00000000       0.00000000       1.94747475       0.00000000       0.00000000      10.93626499
2
Properties=species:S:1:pos:R:3:forces:R:3 energy=3.2760230849950878 pbc="F F F"
Ca       0.00000000       0.00000000       0.00000000       0.00000000       0.00000000      -8.76906395
Ca       0.00000000       0.00000000       2.00707071       0.00000000       0.00000000       8.76906395
2
Properties=species:S:1:pos:R:3:forces:R:3 energy=2.8067193076301717 pbc="F F F"
Ca       0.00000000       0.00000000       0.00000000       0.00000000       0.00000000      -7.05957222
Ca       0.00000000       0.00000000       2.06666667       0.00000000       0.00000000       7.05957222
2
Properties=species:S:1:pos:R:3:forces:R:3 energy=2.425240018669218 pbc="F F F"
Ca       0.00000000       0.00000000       0.00000000       0.00000000       0.00000000      -5.81752014
Ca       0.00000000       0.00000000       2.12626263       0.00000000       0.00000000       5.81752014
2
Properties=species:S:1:pos:R:3:forces:R:3 energy=2.1051786755477124 pbc="F F F"
Ca       0.00000000       0.00000000       0.00000000       0.00000000       0.00000000      -4.98355579
Ca       0.00000000       0.00000000       2.18585859       0.00000000       0.00000000       4.98355579
2
Properties=species:S:1:pos:R:3:forces:R:3 energy=1.8251912294466706 pbc="F F F"
Ca       0.00000000       0.00000000       0.00000000       0.00000000       0.00000000      -4.45421791
Ca       0.00000000       0.00000000       2.24545455       0.00000000       0.00000000       4.45421791
2
Properties=species:S:1:pos:R:3:forces:R:3 energy=1.5703256209815304 pbc="F F F"
Ca       0.00000000       0.00000000       0.00000000       0.00000000       0.00000000      -4.12430906
Ca       0.00000000       0.00000000       2.30505051       0.00000000       0.00000000       4.12430906
2
Properties=species:S:1:pos:R:3:forces:R:3 energy=1.331319878241184 pbc="F F F"
Ca       0.00000000       0.00000000       0.00000000       0.00000000       0.00000000      -3.91034555
Ca       0.00000000       0.00000000       2.36464646       0.00000000       0.00000000       3.91034555
2
Properties=species:S:1:pos:R:3:forces:R:3 energy=1.1031428862099701 pbc="F F F"
Ca       0.00000000       0.00000000       0.00000000       0.00000000       0.00000000      -3.75242639
Ca       0.00000000       0.00000000       2.42424242       0.00000000       0.00000000       3.75242639
2
Properties=species:S:1:pos:R:3:forces:R:3 energy=0.8838124163263937 pbc="F F F"
Ca       0.00000000       0.00000000       0.00000000       0.00000000       0.00000000      -3.60735345
Ca       0.00000000       0.00000000       2.48383838       0.00000000       0.00000000       3.60735345
2
Properties=species:S:1:pos:R:3:forces:R:3 energy=0.673554440062425 pbc="F F F"
Ca       0.00000000       0.00000000       0.00000000       0.00000000       0.00000000      -3.44362140
Ca       0.00000000       0.00000000       2.54343434       0.00000000       0.00000000       3.44362140
2
Properties=species:S:1:pos:R:3:forces:R:3 energy=0.4741438987204955 pbc="F F F"
Ca       0.00000000       0.00000000       0.00000000       0.00000000       0.00000000      -3.24091315
Ca       0.00000000       0.00000000       2.60303030       0.00000000       0.00000000       3.24091315
2
Properties=species:S:1:pos:R:3:forces:R:3 energy=0.28819810516481514 pbc="F F F"
Ca       0.00000000       0.00000000       0.00000000       0.00000000       0.00000000      -2.99159884
Ca       0.00000000       0.00000000       2.66262626       0.00000000       0.00000000       2.99159884
2
Properties=species:S:1:pos:R:3:forces:R:3 energy=0.11838596078759396 pbc="F F F"
Ca       0.00000000       0.00000000       0.00000000       0.00000000       0.00000000      -2.70156288
Ca       0.00000000       0.00000000       2.72222222       0.00000000       0.00000000       2.70156288
2
Properties=species:S:1:pos:R:3:forces:R:3 energy=-0.03334451764339556 pbc="F F F"
Ca       0.00000000       0.00000000       0.00000000       0.00000000       0.00000000      -2.38857055
Ca       0.00000000       0.00000000       2.78181818       0.00000000       0.00000000       2.38857055
2
Properties=species:S:1:pos:R:3:forces:R:3 energy=-0.166345355753364 pbc="F F F"
Ca       0.00000000       0.00000000       0.00000000       0.00000000       0.00000000      -2.07722378
Ca       0.00000000       0.00000000       2.84141414       0.00000000       0.00000000       2.07722378
2
Properties=species:S:1:pos:R:3:forces:R:3 energy=-0.28144454222762366 pbc="F F F"
Ca       0.00000000       0.00000000       0.00000000       0.00000000       0.00000000      -1.79134488
Ca       0.00000000       0.00000000       2.90101010       0.00000000       0.00000000       1.79134488
2
Properties=species:S:1:pos:R:3:forces:R:3 energy=-0.380686280901211 pbc="F F F"
Ca       0.00000000       0.00000000       0.00000000       0.00000000       0.00000000      -1.54671967
Ca       0.00000000       0.00000000       2.96060606       0.00000000       0.00000000       1.54671967
2
Properties=species:S:1:pos:R:3:forces:R:3 energy=-0.4667149485807675 pbc="F F F"
Ca       0.00000000       0.00000000       0.00000000       0.00000000       0.00000000      -1.34771049
Ca       0.00000000       0.00000000       3.02020202       0.00000000       0.00000000       1.34771049
2
Properties=species:S:1:pos:R:3:forces:R:3 energy=-0.5421236267185611 pbc="F F F"
Ca       0.00000000       0.00000000       0.00000000       0.00000000       0.00000000      -1.18885028
Ca       0.00000000       0.00000000       3.07979798       0.00000000       0.00000000       1.18885028
2
Properties=species:S:1:pos:R:3:forces:R:3 energy=-0.6090006882777637 pbc="F F F"
Ca       0.00000000       0.00000000       0.00000000       0.00000000       0.00000000      -1.05938792
Ca       0.00000000       0.00000000       3.13939394       0.00000000       0.00000000       1.05938792
2
Properties=species:S:1:pos:R:3:forces:R:3 energy=-0.6687412853720609 pbc="F F F"
Ca       0.00000000       0.00000000       0.00000000       0.00000000       0.00000000      -0.94744372
Ca       0.00000000       0.00000000       3.19898990       0.00000000       0.00000000       0.94744372
2
Properties=species:S:1:pos:R:3:forces:R:3 energy=-0.7220620992913925 pbc="F F F"
Ca       0.00000000       0.00000000       0.00000000       0.00000000       0.00000000      -0.84228921
Ca       0.00000000       0.00000000       3.25858586       0.00000000       0.00000000       0.84228921
2
Properties=species:S:1:pos:R:3:forces:R:3 energy=-0.7691017987509665 pbc="F F F"
Ca       0.00000000       0.00000000       0.00000000       0.00000000       0.00000000      -0.73553950
Ca       0.00000000       0.00000000       3.31818182       0.00000000       0.00000000       0.73553950
2
Properties=species:S:1:pos:R:3:forces:R:3 energy=-0.8095987457599013 pbc="F F F"
Ca       0.00000000       0.00000000       0.00000000       0.00000000       0.00000000      -0.62224108
Ca       0.00000000       0.00000000       3.37777778       0.00000000       0.00000000       0.62224108
2
Properties=species:S:1:pos:R:3:forces:R:3 energy=-0.8431185347246988 pbc="F F F"
Ca       0.00000000       0.00000000       0.00000000       0.00000000       0.00000000      -0.50157261
Ca       0.00000000       0.00000000       3.43737374       0.00000000       0.00000000       0.50157261
2
Properties=species:S:1:pos:R:3:forces:R:3 energy=-0.8692915592202217 pbc="F F F"
Ca       0.00000000       0.00000000       0.00000000       0.00000000       0.00000000      -0.37641573
Ca       0.00000000       0.00000000       3.49696970       0.00000000       0.00000000       0.37641573
2
Properties=species:S:1:pos:R:3:forces:R:3 energy=-0.8879968335624343 pbc="F F F"
Ca       0.00000000       0.00000000       0.00000000       0.00000000       0.00000000      -0.25190797
Ca       0.00000000       0.00000000       3.55656566       0.00000000       0.00000000       0.25190797
2
Properties=species:S:1:pos:R:3:forces:R:3 energy=-0.8994449238206634 pbc="F F F"
Ca       0.00000000       0.00000000       0.00000000       0.00000000       0.00000000      -0.13382465
Ca       0.00000000       0.00000000       3.61616162       0.00000000       0.00000000       0.13382465
2
Properties=species:S:1:pos:R:3:forces:R:3 energy=-0.9041800528044943 pbc="F F F"
Ca       0.00000000       0.00000000       0.00000000       0.00000000       0.00000000      -0.02739964
Ca       0.00000000       0.00000000       3.67575758       0.00000000       0.00000000       0.02739964
2
Properties=species:S:1:pos:R:3:forces:R:3 energy=-0.9030243058948266 pbc="F F F"
Ca       0.00000000       0.00000000       0.00000000       0.00000000       0.00000000       0.06329978
Ca       0.00000000       0.00000000       3.73535354       0.00000000       0.00000000      -0.06329978
2
Properties=species:S:1:pos:R:3:forces:R:3 energy=-0.8969998757116091 pbc="F F F"
Ca       0.00000000       0.00000000       0.00000000       0.00000000       0.00000000       0.13569097
Ca       0.00000000       0.00000000       3.79494949       0.00000000       0.00000000      -0.13569097
2
Properties=species:S:1:pos:R:3:forces:R:3 energy=-0.8872337721520718 pbc="F F F"
Ca       0.00000000       0.00000000       0.00000000       0.00000000       0.00000000       0.18889351
Ca       0.00000000       0.00000000       3.85454545       0.00000000       0.00000000      -0.18889351
2
Properties=species:S:1:pos:R:3:forces:R:3 energy=-0.8748449256081244 pbc="F F F"
Ca       0.00000000       0.00000000       0.00000000       0.00000000       0.00000000       0.22409718
Ca       0.00000000       0.00000000       3.91414141       0.00000000       0.00000000      -0.22409718
2
Properties=species:S:1:pos:R:3:forces:R:3 energy=-0.8608027505331238 pbc="F F F"
Ca       0.00000000       0.00000000       0.00000000       0.00000000       0.00000000       0.24533276
Ca       0.00000000       0.00000000       3.97373737       0.00000000       0.00000000      -0.24533276
2
Properties=species:S:1:pos:R:3:forces:R:3 energy=-0.8457352156784586 pbc="F F F"
Ca       0.00000000       0.00000000       0.00000000       0.00000000       0.00000000       0.25999245
Ca       0.00000000       0.00000000       4.03333333       0.00000000       0.00000000      -0.25999245
2
Properties=species:S:1:pos:R:3:forces:R:3 energy=-0.829764692684866 pbc="F F F"
Ca       0.00000000       0.00000000       0.00000000       0.00000000       0.00000000       0.27701139
Ca       0.00000000       0.00000000       4.09292929       0.00000000       0.00000000      -0.27701139
2
Properties=species:S:1:pos:R:3:forces:R:3 energy=-0.8125559521828489 pbc="F F F"
Ca       0.00000000       0.00000000       0.00000000       0.00000000       0.00000000       0.30190083
Ca       0.00000000       0.00000000       4.15252525       0.00000000       0.00000000      -0.30190083
2
Properties=species:S:1:pos:R:3:forces:R:3 energy=-0.7936495615636845 pbc="F F F"
Ca       0.00000000       0.00000000       0.00000000       0.00000000       0.00000000       0.33322752
Ca       0.00000000       0.00000000       4.21212121       0.00000000       0.00000000      -0.33322752
2
Properties=species:S:1:pos:R:3:forces:R:3 energy=-0.7728289680596863 pbc="F F F"
Ca       0.00000000       0.00000000       0.00000000       0.00000000       0.00000000       0.36502469
Ca       0.00000000       0.00000000       4.27171717       0.00000000       0.00000000      -0.36502469
2
Properties=species:S:1:pos:R:3:forces:R:3 energy=-0.750245624560574 pbc="F F F"
Ca       0.00000000       0.00000000       0.00000000       0.00000000       0.00000000       0.39168009
Ca       0.00000000       0.00000000       4.33131313       0.00000000       0.00000000      -0.39168009
2
Properties=species:S:1:pos:R:3:forces:R:3 energy=-0.7263076225191335 pbc="F F F"
Ca       0.00000000       0.00000000       0.00000000       0.00000000       0.00000000       0.41017917
Ca       0.00000000       0.00000000       4.39090909       0.00000000       0.00000000      -0.41017917
2
Properties=species:S:1:pos:R:3:forces:R:3 energy=-0.7015349869054441 pbc="F F F"
Ca       0.00000000       0.00000000       0.00000000       0.00000000       0.00000000       0.41966194
Ca       0.00000000       0.00000000       4.45050505       0.00000000       0.00000000      -0.41966194
2
Properties=species:S:1:pos:R:3:forces:R:3 energy=-0.6764605074400252 pbc="F F F"
Ca       0.00000000       0.00000000       0.00000000       0.00000000       0.00000000       0.42045766
Ca       0.00000000       0.00000000       4.51010101       0.00000000       0.00000000      -0.42045766
2
Properties=species:S:1:pos:R:3:forces:R:3 energy=-0.6515732590330371 pbc="F F F"
Ca       0.00000000       0.00000000       0.00000000       0.00000000       0.00000000       0.41355151
Ca       0.00000000       0.00000000       4.56969697       0.00000000       0.00000000      -0.41355151
2
Properties=species:S:1:pos:R:3:forces:R:3 energy=-0.6272919081752818 pbc="F F F"
Ca       0.00000000       0.00000000       0.00000000       0.00000000       0.00000000       0.40041706
Ca       0.00000000       0.00000000       4.62929293       0.00000000       0.00000000      -0.40041706
2
Properties=species:S:1:pos:R:3:forces:R:3 energy=-0.6039341261215745 pbc="F F F"
Ca       0.00000000       0.00000000       0.00000000       0.00000000       0.00000000       0.38291109
Ca       0.00000000       0.00000000       4.68888889       0.00000000       0.00000000      -0.38291109
2
Properties=species:S:1:pos:R:3:forces:R:3 energy=-0.5816983491550749 pbc="F F F"
Ca       0.00000000       0.00000000       0.00000000       0.00000000       0.00000000       0.36307326
Ca       0.00000000       0.00000000       4.74848485       0.00000000       0.00000000      -0.36307326
2
Properties=species:S:1:pos:R:3:forces:R:3 energy=-0.5606674758403158 pbc="F F F"
Ca       0.00000000       0.00000000       0.00000000       0.00000000       0.00000000       0.34276935
Ca       0.00000000       0.00000000       4.80808081       0.00000000       0.00000000      -0.34276935
2
Properties=species:S:1:pos:R:3:forces:R:3 energy=-0.5408262654526859 pbc="F F F"
Ca       0.00000000       0.00000000       0.00000000       0.00000000       0.00000000       0.32326129
Ca       0.00000000       0.00000000       4.86767677       0.00000000       0.00000000      -0.32326129
2
Properties=species:S:1:pos:R:3:forces:R:3 energy=-0.5221146713206992 pbc="F F F"
Ca       0.00000000       0.00000000       0.00000000       0.00000000       0.00000000       0.30482745
Ca       0.00000000       0.00000000       4.92727273       0.00000000       0.00000000      -0.30482745
2
Properties=species:S:1:pos:R:3:forces:R:3 energy=-0.504485951495217 pbc="F F F"
Ca       0.00000000       0.00000000       0.00000000       0.00000000       0.00000000       0.28674367
Ca       0.00000000       0.00000000       4.98686869       0.00000000       0.00000000      -0.28674367
2
Properties=species:S:1:pos:R:3:forces:R:3 energy=-0.4879506195996148 pbc="F F F"
Ca       0.00000000       0.00000000       0.00000000       0.00000000       0.00000000       0.26811606
Ca       0.00000000       0.00000000       5.04646465       0.00000000       0.00000000      -0.26811606
2
Properties=species:S:1:pos:R:3:forces:R:3 energy=-0.4725211985797303 pbc="F F F"
Ca       0.00000000       0.00000000       0.00000000       0.00000000       0.00000000       0.25009382
Ca       0.00000000       0.00000000       5.10606061       0.00000000       0.00000000      -0.25009382
2
Properties=species:S:1:pos:R:3:forces:R:3 energy=-0.4580142558037047 pbc="F F F"
Ca       0.00000000       0.00000000       0.00000000       0.00000000       0.00000000       0.23851760
Ca       0.00000000       0.00000000       5.16565657       0.00000000       0.00000000      -0.23851760
2
Properties=species:S:1:pos:R:3:forces:R:3 energy=-0.44378040527654455 pbc="F F F"
Ca       0.00000000       0.00000000       0.00000000       0.00000000       0.00000000       0.24232917
Ca       0.00000000       0.00000000       5.22525253       0.00000000       0.00000000      -0.24232917
2
Properties=species:S:1:pos:R:3:forces:R:3 energy=-0.4287773829346164 pbc="F F F"
Ca       0.00000000       0.00000000       0.00000000       0.00000000       0.00000000       0.26331067
Ca       0.00000000       0.00000000       5.28484848       0.00000000       0.00000000      -0.26331067
2
Properties=species:S:1:pos:R:3:forces:R:3 energy=-0.4123430527001526 pbc="F F F"
Ca       0.00000000       0.00000000       0.00000000       0.00000000       0.00000000       0.28669173
Ca       0.00000000       0.00000000       5.34444444       0.00000000       0.00000000      -0.28669173
2
Properties=species:S:1:pos:R:3:forces:R:3 energy=-0.39496759990945124 pbc="F F F"
Ca       0.00000000       0.00000000       0.00000000       0.00000000       0.00000000       0.29257309
Ca       0.00000000       0.00000000       5.40404040       0.00000000       0.00000000      -0.29257309
2
Properties=species:S:1:pos:R:3:forces:R:3 energy=-0.37784117124084876 pbc="F F F"
Ca       0.00000000       0.00000000       0.00000000       0.00000000       0.00000000       0.28060663
Ca       0.00000000       0.00000000       5.46363636       0.00000000       0.00000000      -0.28060663
2
Properties=species:S:1:pos:R:3:forces:R:3 energy=-0.3613863442959598 pbc="F F F"
Ca       0.00000000       0.00000000       0.00000000       0.00000000       0.00000000       0.27588531
Ca       0.00000000       0.00000000       5.52323232       0.00000000       0.00000000      -0.27588531
2
Properties=species:S:1:pos:R:3:forces:R:3 energy=-0.34422152163160935 pbc="F F F"
Ca       0.00000000       0.00000000       0.00000000       0.00000000       0.00000000       0.30736715
Ca       0.00000000       0.00000000       5.58282828       0.00000000       0.00000000      -0.30736715
2
Properties=species:S:1:pos:R:3:forces:R:3 energy=-0.32404777489021036 pbc="F F F"
Ca       0.00000000       0.00000000       0.00000000       0.00000000       0.00000000       0.37250322
Ca       0.00000000       0.00000000       5.64242424       0.00000000       0.00000000      -0.37250322
2
Properties=species:S:1:pos:R:3:forces:R:3 energy=-0.30008705257383067 pbc="F F F"
Ca       0.00000000       0.00000000       0.00000000       0.00000000       0.00000000       0.42327762
Ca       0.00000000       0.00000000       5.70202020       0.00000000       0.00000000      -0.42327762
2
Properties=species:S:1:pos:R:3:forces:R:3 energy=-0.27503580276418316 pbc="F F F"
Ca       0.00000000       0.00000000       0.00000000       0.00000000       0.00000000       0.40431058
Ca       0.00000000       0.00000000       5.76161616       0.00000000       0.00000000      -0.40431058
2
Properties=species:S:1:pos:R:3:forces:R:3 energy=-0.25346870711256697 pbc="F F F"
Ca       0.00000000       0.00000000       0.00000000       0.00000000       0.00000000       0.30862153
Ca       0.00000000       0.00000000       5.82121212       0.00000000       0.00000000      -0.30862153
2
Properties=species:S:1:pos:R:3:forces:R:3 energy=-0.23893530925054077 pbc="F F F"
Ca       0.00000000       0.00000000       0.00000000       0.00000000       0.00000000       0.18027653
Ca       0.00000000       0.00000000       5.88080808       0.00000000       0.00000000      -0.18027653
2
Properties=species:S:1:pos:R:3:forces:R:3 energy=-0.23143688869603654 pbc="F F F"
Ca       0.00000000       0.00000000       0.00000000       0.00000000       0.00000000       0.07739326
Ca       0.00000000       0.00000000       5.94040404       0.00000000       0.00000000      -0.07739326
2
Properties=species:S:1:pos:R:3:forces:R:3 energy=-0.2284001592686199 pbc="F F F"
Ca       0.00000000       0.00000000       0.00000000       0.00000000       0.00000000       0.03754949
Ca       0.00000000       0.00000000       6.00000000       0.00000000       0.00000000      -0.03754949
