2
Properties=species:S:1:pos:R:3:forces:R:3 energy=53335.76063228241 pbc="F F F"
Ce       0.00000000       0.00000000       0.00000000       0.00000000       0.00000000 -1308120.37500000
Ce       0.00000000       0.00000000       0.10000000       0.00000000       0.00000000 1308120.37500000
2
Properties=species:S:1:pos:R:3:forces:R:3 energy=15248.427624469909 pbc="F F F"
Ce       0.00000000       0.00000000       0.00000000       0.00000000       0.00000000 -278697.84375000
Ce       0.00000000       0.00000000       0.15959596       0.00000000       0.00000000  278697.84375000
2
Properties=species:S:1:pos:R:3:forces:R:3 energy=5697.763561969909 pbc="F F F"
Ce       0.00000000       0.00000000       0.00000000       0.00000000       0.00000000  -85825.94531250
Ce       0.00000000       0.00000000       0.21919192       0.00000000       0.00000000   85825.94531250
2
Properties=species:S:1:pos:R:3:forces:R:3 energy=2472.538220173034 pbc="F F F"
Ce       0.00000000       0.00000000       0.00000000       0.00000000       0.00000000  -32333.92187500
Ce       0.00000000       0.00000000       0.27878788       0.00000000       0.00000000   32333.92187500
2
Properties=species:S:1:pos:R:3:forces:R:3 energy=1188.0061156808465 pbc="F F F"
Ce       0.00000000       0.00000000       0.00000000       0.00000000       0.00000000  -13735.50683594
Ce       0.00000000       0.00000000       0.33838384       0.00000000       0.00000000   13735.50683594
2
Properties=species:S:1:pos:R:3:forces:R:3 energy=621.8462646066276 pbc="F F F"
Ce       0.00000000       0.00000000       0.00000000       0.00000000       0.00000000   -6320.92041016
Ce       0.00000000       0.00000000       0.39797980       0.00000000       0.00000000    6320.92041016
2
Properties=species:S:1:pos:R:3:forces:R:3 energy=354.01603389532096 pbc="F F F"
Ce       0.00000000       0.00000000       0.00000000       0.00000000       0.00000000   -3089.73095703
Ce       0.00000000       0.00000000       0.45757576       0.00000000       0.00000000    3089.73095703
2
Properties=species:S:1:pos:R:3:forces:R:3 energy=220.1099364847955 pbc="F F F"
Ce       0.00000000       0.00000000       0.00000000       0.00000000       0.00000000   -1586.54211426
Ce       0.00000000       0.00000000       0.51717172       0.00000000       0.00000000    1586.54211426
2
Properties=species:S:1:pos:R:3:forces:R:3 energy=150.0501830731624 pbc="F F F"
Ce       0.00000000       0.00000000       0.00000000       0.00000000       0.00000000    -848.11358643
Ce       0.00000000       0.00000000       0.57676768       0.00000000       0.00000000     848.11358643
2
Properties=species:S:1:pos:R:3:forces:R:3 energy=112.06319119717381 pbc="F F F"
Ce       0.00000000       0.00000000       0.00000000       0.00000000       0.00000000    -466.80355835
Ce       0.00000000       0.00000000       0.63636364       0.00000000       0.00000000     466.80355835
2
Properties=species:S:1:pos:R:3:forces:R:3 energy=90.99718931617134 pbc="F F F"
Ce       0.00000000       0.00000000       0.00000000       0.00000000       0.00000000    -260.33041382
Ce       0.00000000       0.00000000       0.69595960       0.00000000       0.00000000     260.33041382
2
Properties=species:S:1:pos:R:3:forces:R:3 energy=79.2730529794714 pbc="F F F"
Ce       0.00000000       0.00000000       0.00000000       0.00000000       0.00000000    -143.87818909
Ce       0.00000000       0.00000000       0.75555556       0.00000000       0.00000000     143.87818909
2
Properties=species:S:1:pos:R:3:forces:R:3 energy=72.87242586699959 pbc="F F F"
Ce       0.00000000       0.00000000       0.00000000       0.00000000       0.00000000     -77.20385742
Ce       0.00000000       0.00000000       0.81515152       0.00000000       0.00000000      77.20385742
2
Properties=species:S:1:pos:R:3:forces:R:3 energy=69.46833502208189 pbc="F F F"
Ce       0.00000000       0.00000000       0.00000000       0.00000000       0.00000000     -41.15065384
Ce       0.00000000       0.00000000       0.87474747       0.00000000       0.00000000      41.15065384
2
Properties=species:S:1:pos:R:3:forces:R:3 energy=67.56207744495643 pbc="F F F"
Ce       0.00000000       0.00000000       0.00000000       0.00000000       0.00000000     -25.56611252
Ce       0.00000000       0.00000000       0.93434343       0.00000000       0.00000000      25.56611252
2
Properties=species:S:1:pos:R:3:forces:R:3 energy=66.16815661621101 pbc="F F F"
Ce       0.00000000       0.00000000       0.00000000       0.00000000       0.00000000     -22.74994469
Ce       0.00000000       0.00000000       0.99393939       0.00000000       0.00000000      22.74994469
2
Properties=species:S:1:pos:R:3:forces:R:3 energy=64.72154721417536 pbc="F F F"
Ce       0.00000000       0.00000000       0.00000000       0.00000000       0.00000000     -26.55990791
Ce       0.00000000       0.00000000       1.05353535       0.00000000       0.00000000      26.55990791
2
Properties=species:S:1:pos:R:3:forces:R:3 energy=62.92521403106779 pbc="F F F"
Ce       0.00000000       0.00000000       0.00000000       0.00000000       0.00000000     -34.34871292
Ce       0.00000000       0.00000000       1.11313131       0.00000000       0.00000000      34.34871292
2
Properties=species:S:1:pos:R:3:forces:R:3 energy=60.54926052464596 pbc="F F F"
Ce       0.00000000       0.00000000       0.00000000       0.00000000       0.00000000     -46.06592560
Ce       0.00000000       0.00000000       1.17272727       0.00000000       0.00000000      46.06592560
2
Properties=species:S:1:pos:R:3:forces:R:3 energy=57.35782397564756 pbc="F F F"
Ce       0.00000000       0.00000000       0.00000000       0.00000000       0.00000000     -61.60312653
Ce       0.00000000       0.00000000       1.23232323       0.00000000       0.00000000      61.60312653
2
Properties=species:S:1:pos:R:3:forces:R:3 energy=53.15550797340405 pbc="F F F"
Ce       0.00000000       0.00000000       0.00000000       0.00000000       0.00000000     -79.67287445
Ce       0.00000000       0.00000000       1.29191919       0.00000000       0.00000000      79.67287445
2
Properties=species:S:1:pos:R:3:forces:R:3 energy=47.858801178047635 pbc="F F F"
Ce       0.00000000       0.00000000       0.00000000       0.00000000       0.00000000     -97.85220337
Ce       0.00000000       0.00000000       1.35151515       0.00000000       0.00000000      97.85220337
2
Properties=species:S:1:pos:R:3:forces:R:3 energy=41.549643302683066 pbc="F F F"
Ce       0.00000000       0.00000000       0.00000000       0.00000000       0.00000000    -113.16321564
Ce       0.00000000       0.00000000       1.41111111       0.00000000       0.00000000     113.16321564
2
Properties=species:S:1:pos:R:3:forces:R:3 energy=34.47968612706547 pbc="F F F"
Ce       0.00000000       0.00000000       0.00000000       0.00000000       0.00000000    -123.01328278
Ce       0.00000000       0.00000000       1.47070707       0.00000000       0.00000000     123.01328278
2
Properties=species:S:1:pos:R:3:forces:R:3 energy=27.035259329000233 pbc="F F F"
Ce       0.00000000       0.00000000       0.00000000       0.00000000       0.00000000    -125.44142914
Ce       0.00000000       0.00000000       1.53030303       0.00000000       0.00000000     125.44142914
2
Properties=species:S:1:pos:R:3:forces:R:3 energy=19.7041730639659 pbc="F F F"
Ce       0.00000000       0.00000000       0.00000000       0.00000000       0.00000000    -119.04190826
Ce       0.00000000       0.00000000       1.58989899       0.00000000       0.00000000     119.04190826
2
Properties=species:S:1:pos:R:3:forces:R:3 energy=13.027276094051409 pbc="F F F"
Ce       0.00000000       0.00000000       0.00000000       0.00000000       0.00000000    -103.63077545
Ce       0.00000000       0.00000000       1.64949495       0.00000000       0.00000000     103.63077545
2
Properties=species:S:1:pos:R:3:forces:R:3 energy=7.479550714176607 pbc="F F F"
Ce       0.00000000       0.00000000       0.00000000       0.00000000       0.00000000     -81.97225189
Ce       0.00000000       0.00000000       1.70909091       0.00000000       0.00000000      81.97225189
2
Properties=species:S:1:pos:R:3:forces:R:3 energy=3.2521564396225235 pbc="F F F"
Ce       0.00000000       0.00000000       0.00000000       0.00000000       0.00000000     -60.47074509
Ce       0.00000000       0.00000000       1.76868687       0.00000000       0.00000000      60.47074509
2
Properties=species:S:1:pos:R:3:forces:R:3 energy=0.17596323734333066 pbc="F F F"
Ce       0.00000000       0.00000000       0.00000000       0.00000000       0.00000000     -43.59167862
Ce       0.00000000       0.00000000       1.82828283       0.00000000       0.00000000      43.59167862
2
Properties=species:S:1:pos:R:3:forces:R:3 energy=-2.0268306083214704 pbc="F F F"
Ce       0.00000000       0.00000000       0.00000000       0.00000000       0.00000000     -30.90531731
Ce       0.00000000       0.00000000       1.88787879       0.00000000       0.00000000      30.90531731
2
Properties=species:S:1:pos:R:3:forces:R:3 energy=-3.5681398228585515 pbc="F F F"
Ce       0.00000000       0.00000000       0.00000000       0.00000000       0.00000000     -21.29353714
Ce       0.00000000       0.00000000       1.94747475       0.00000000       0.00000000      21.29353714
2
Properties=species:S:1:pos:R:3:forces:R:3 energy=-4.618740234845722 pbc="F F F"
Ce       0.00000000       0.00000000       0.00000000       0.00000000       0.00000000     -14.38561535
Ce       0.00000000       0.00000000       2.00707071       0.00000000       0.00000000      14.38561535
2
Properties=species:S:1:pos:R:3:forces:R:3 energy=-5.327250000625589 pbc="F F F"
Ce       0.00000000       0.00000000       0.00000000       0.00000000       0.00000000      -9.70682907
Ce       0.00000000       0.00000000       2.06666667       0.00000000       0.00000000       9.70682907
2
Properties=species:S:1:pos:R:3:forces:R:3 energy=-5.806066721251912 pbc="F F F"
Ce       0.00000000       0.00000000       0.00000000       0.00000000       0.00000000      -6.55994320
Ce       0.00000000       0.00000000       2.12626263       0.00000000       0.00000000       6.55994320
2
Properties=species:S:1:pos:R:3:forces:R:3 energy=-6.127282373803554 pbc="F F F"
Ce       0.00000000       0.00000000       0.00000000       0.00000000       0.00000000      -4.33472586
Ce       0.00000000       0.00000000       2.18585859       0.00000000       0.00000000       4.33472586
2
Properties=species:S:1:pos:R:3:forces:R:3 energy=-6.333374950977879 pbc="F F F"
Ce       0.00000000       0.00000000       0.00000000       0.00000000       0.00000000      -2.65203118
Ce       0.00000000       0.00000000       2.24545455       0.00000000       0.00000000       2.65203118
2
Properties=species:S:1:pos:R:3:forces:R:3 energy=-6.450488382282363 pbc="F F F"
Ce       0.00000000       0.00000000       0.00000000       0.00000000       0.00000000      -1.33075178
Ce       0.00000000       0.00000000       2.30505051       0.00000000       0.00000000       1.33075178
2
Properties=species:S:1:pos:R:3:forces:R:3 energy=-6.497842918519549 pbc="F F F"
Ce       0.00000000       0.00000000       0.00000000       0.00000000       0.00000000      -0.30544174
Ce       0.00000000       0.00000000       2.36464646       0.00000000       0.00000000       0.30544174
2
Properties=species:S:1:pos:R:3:forces:R:3 energy=-6.492271739919348 pbc="F F F"
Ce       0.00000000       0.00000000       0.00000000       0.00000000       0.00000000       0.44976017
Ce       0.00000000       0.00000000       2.42424242       0.00000000       0.00000000      -0.44976017
2
Properties=species:S:1:pos:R:3:forces:R:3 energy=-6.4488780599178 pbc="F F F"
Ce       0.00000000       0.00000000       0.00000000       0.00000000       0.00000000       0.97225469
Ce       0.00000000       0.00000000       2.48383838       0.00000000       0.00000000      -0.97225469
2
Properties=species:S:1:pos:R:3:forces:R:3 energy=-6.379807732056659 pbc="F F F"
Ce       0.00000000       0.00000000       0.00000000       0.00000000       0.00000000       1.32265663
Ce       0.00000000       0.00000000       2.54343434       0.00000000       0.00000000      -1.32265663
2
Properties=species:S:1:pos:R:3:forces:R:3 energy=-6.293385697889886 pbc="F F F"
Ce       0.00000000       0.00000000       0.00000000       0.00000000       0.00000000       1.56367075
Ce       0.00000000       0.00000000       2.60303030       0.00000000       0.00000000      -1.56367075
2
Properties=species:S:1:pos:R:3:forces:R:3 energy=-6.194763067678619 pbc="F F F"
Ce       0.00000000       0.00000000       0.00000000       0.00000000       0.00000000       1.73670113
Ce       0.00000000       0.00000000       2.66262626       0.00000000       0.00000000      -1.73670113
2
Properties=species:S:1:pos:R:3:forces:R:3 energy=-6.0873986296830465 pbc="F F F"
Ce       0.00000000       0.00000000       0.00000000       0.00000000       0.00000000       1.85815501
Ce       0.00000000       0.00000000       2.72222222       0.00000000       0.00000000      -1.85815501
2
Properties=species:S:1:pos:R:3:forces:R:3 energy=-5.974241897407106 pbc="F F F"
Ce       0.00000000       0.00000000       0.00000000       0.00000000       0.00000000       1.93149972
Ce       0.00000000       0.00000000       2.78181818       0.00000000       0.00000000      -1.93149972
2
Properties=species:S:1:pos:R:3:forces:R:3 energy=-5.85807786603169 pbc="F F F"
Ce       0.00000000       0.00000000       0.00000000       0.00000000       0.00000000       1.95987189
Ce       0.00000000       0.00000000       2.84141414       0.00000000       0.00000000      -1.95987189
2
Properties=species:S:1:pos:R:3:forces:R:3 energy=-5.7413758391963805 pbc="F F F"
Ce       0.00000000       0.00000000       0.00000000       0.00000000       0.00000000       1.95133364
Ce       0.00000000       0.00000000       2.90101010       0.00000000       0.00000000      -1.95133364
2
Properties=species:S:1:pos:R:3:forces:R:3 energy=-5.625995711565202 pbc="F F F"
Ce       0.00000000       0.00000000       0.00000000       0.00000000       0.00000000       1.91755450
Ce       0.00000000       0.00000000       2.96060606       0.00000000       0.00000000      -1.91755450
2
Properties=species:S:1:pos:R:3:forces:R:3 energy=-5.513098787606744 pbc="F F F"
Ce       0.00000000       0.00000000       0.00000000       0.00000000       0.00000000       1.86955035
Ce       0.00000000       0.00000000       3.02020202       0.00000000       0.00000000      -1.86955035
2
Properties=species:S:1:pos:R:3:forces:R:3 energy=-5.403312296749385 pbc="F F F"
Ce       0.00000000       0.00000000       0.00000000       0.00000000       0.00000000       1.81364322
Ce       0.00000000       0.00000000       3.07979798       0.00000000       0.00000000      -1.81364322
2
Properties=species:S:1:pos:R:3:forces:R:3 energy=-5.29707271296738 pbc="F F F"
Ce       0.00000000       0.00000000       0.00000000       0.00000000       0.00000000       1.75030804
Ce       0.00000000       0.00000000       3.13939394       0.00000000       0.00000000      -1.75030804
2
Properties=species:S:1:pos:R:3:forces:R:3 energy=-5.194892788341186 pbc="F F F"
Ce       0.00000000       0.00000000       0.00000000       0.00000000       0.00000000       1.67688179
Ce       0.00000000       0.00000000       3.19898990       0.00000000       0.00000000      -1.67688179
2
Properties=species:S:1:pos:R:3:forces:R:3 energy=-5.097432110701675 pbc="F F F"
Ce       0.00000000       0.00000000       0.00000000       0.00000000       0.00000000       1.59187710
Ce       0.00000000       0.00000000       3.25858586       0.00000000       0.00000000      -1.59187710
2
Properties=species:S:1:pos:R:3:forces:R:3 energy=-5.005345488420761 pbc="F F F"
Ce       0.00000000       0.00000000       0.00000000       0.00000000       0.00000000       1.49727333
Ce       0.00000000       0.00000000       3.31818182       0.00000000       0.00000000      -1.49727333
2
Properties=species:S:1:pos:R:3:forces:R:3 energy=-4.9190755072406445 pbc="F F F"
Ce       0.00000000       0.00000000       0.00000000       0.00000000       0.00000000       1.39741254
Ce       0.00000000       0.00000000       3.37777778       0.00000000       0.00000000      -1.39741254
2
Properties=species:S:1:pos:R:3:forces:R:3 energy=-4.8388062929085836 pbc="F F F"
Ce       0.00000000       0.00000000       0.00000000       0.00000000       0.00000000       1.29646027
Ce       0.00000000       0.00000000       3.43737374       0.00000000       0.00000000      -1.29646027
2
Properties=species:S:1:pos:R:3:forces:R:3 energy=-4.764513094321786 pbc="F F F"
Ce       0.00000000       0.00000000       0.00000000       0.00000000       0.00000000       1.19720387
Ce       0.00000000       0.00000000       3.49696970       0.00000000       0.00000000      -1.19720387
2
Properties=species:S:1:pos:R:3:forces:R:3 energy=-4.696031424915351 pbc="F F F"
Ce       0.00000000       0.00000000       0.00000000       0.00000000       0.00000000       1.10187066
Ce       0.00000000       0.00000000       3.55656566       0.00000000       0.00000000      -1.10187066
2
Properties=species:S:1:pos:R:3:forces:R:3 energy=-4.633041331787784 pbc="F F F"
Ce       0.00000000       0.00000000       0.00000000       0.00000000       0.00000000       1.01354218
Ce       0.00000000       0.00000000       3.61616162       0.00000000       0.00000000      -1.01354218
2
Properties=species:S:1:pos:R:3:forces:R:3 energy=-4.574998726398477 pbc="F F F"
Ce       0.00000000       0.00000000       0.00000000       0.00000000       0.00000000       0.93664581
Ce       0.00000000       0.00000000       3.67575758       0.00000000       0.00000000      -0.93664581
2
Properties=species:S:1:pos:R:3:forces:R:3 energy=-4.521076269431385 pbc="F F F"
Ce       0.00000000       0.00000000       0.00000000       0.00000000       0.00000000       0.87600815
Ce       0.00000000       0.00000000       3.73535354       0.00000000       0.00000000      -0.87600815
2
Properties=species:S:1:pos:R:3:forces:R:3 energy=-4.470191974688871 pbc="F F F"
Ce       0.00000000       0.00000000       0.00000000       0.00000000       0.00000000       0.83508825
Ce       0.00000000       0.00000000       3.79494949       0.00000000       0.00000000      -0.83508825
2
Properties=species:S:1:pos:R:3:forces:R:3 energy=-4.4211346140964904 pbc="F F F"
Ce       0.00000000       0.00000000       0.00000000       0.00000000       0.00000000       0.81449252
Ce       0.00000000       0.00000000       3.85454545       0.00000000       0.00000000      -0.81449252
2
Properties=species:S:1:pos:R:3:forces:R:3 energy=-4.372754954746014 pbc="F F F"
Ce       0.00000000       0.00000000       0.00000000       0.00000000       0.00000000       0.81176567
Ce       0.00000000       0.00000000       3.91414141       0.00000000       0.00000000      -0.81176567
2
Properties=species:S:1:pos:R:3:forces:R:3 energy=-4.324112116224765 pbc="F F F"
Ce       0.00000000       0.00000000       0.00000000       0.00000000       0.00000000       0.82245016
Ce       0.00000000       0.00000000       3.97373737       0.00000000       0.00000000      -0.82245016
2
Properties=species:S:1:pos:R:3:forces:R:3 energy=-4.274556584630664 pbc="F F F"
Ce       0.00000000       0.00000000       0.00000000       0.00000000       0.00000000       0.84164774
Ce       0.00000000       0.00000000       4.03333333       0.00000000       0.00000000      -0.84164774
2
Properties=species:S:1:pos:R:3:forces:R:3 energy=-4.223711592164392 pbc="F F F"
Ce       0.00000000       0.00000000       0.00000000       0.00000000       0.00000000       0.86506343
Ce       0.00000000       0.00000000       4.09292929       0.00000000       0.00000000      -0.86506343
2
Properties=species:S:1:pos:R:3:forces:R:3 energy=-4.171433553900455 pbc="F F F"
Ce       0.00000000       0.00000000       0.00000000       0.00000000       0.00000000       0.88921386
Ce       0.00000000       0.00000000       4.15252525       0.00000000       0.00000000      -0.88921386
2
Properties=species:S:1:pos:R:3:forces:R:3 energy=-4.117770115620732 pbc="F F F"
Ce       0.00000000       0.00000000       0.00000000       0.00000000       0.00000000       0.91107541
Ce       0.00000000       0.00000000       4.21212121       0.00000000       0.00000000      -0.91107541
2
Properties=species:S:1:pos:R:3:forces:R:3 energy=-4.062943461346116 pbc="F F F"
Ce       0.00000000       0.00000000       0.00000000       0.00000000       0.00000000       0.92776465
Ce       0.00000000       0.00000000       4.27171717       0.00000000       0.00000000      -0.92776465
2
Properties=species:S:1:pos:R:3:forces:R:3 energy=-4.007346048728577 pbc="F F F"
Ce       0.00000000       0.00000000       0.00000000       0.00000000       0.00000000       0.93652827
Ce       0.00000000       0.00000000       4.33131313       0.00000000       0.00000000      -0.93652827
2
Properties=species:S:1:pos:R:3:forces:R:3 energy=-3.9515198507956697 pbc="F F F"
Ce       0.00000000       0.00000000       0.00000000       0.00000000       0.00000000       0.93511719
Ce       0.00000000       0.00000000       4.39090909       0.00000000       0.00000000      -0.93511719
2
Properties=species:S:1:pos:R:3:forces:R:3 energy=-3.8961136996157197 pbc="F F F"
Ce       0.00000000       0.00000000       0.00000000       0.00000000       0.00000000       0.92234474
Ce       0.00000000       0.00000000       4.45050505       0.00000000       0.00000000      -0.92234474
2
Properties=species:S:1:pos:R:3:forces:R:3 energy=-3.841803671915423 pbc="F F F"
Ce       0.00000000       0.00000000       0.00000000       0.00000000       0.00000000       0.89857751
Ce       0.00000000       0.00000000       4.51010101       0.00000000       0.00000000      -0.89857751
2
Properties=species:S:1:pos:R:3:forces:R:3 energy=-3.7891864985519668 pbc="F F F"
Ce       0.00000000       0.00000000       0.00000000       0.00000000       0.00000000       0.86598784
Ce       0.00000000       0.00000000       4.56969697       0.00000000       0.00000000      -0.86598784
2
Properties=species:S:1:pos:R:3:forces:R:3 energy=-3.738684238263078 pbc="F F F"
Ce       0.00000000       0.00000000       0.00000000       0.00000000       0.00000000       0.82838523
Ce       0.00000000       0.00000000       4.62929293       0.00000000       0.00000000      -0.82838523
2
Properties=species:S:1:pos:R:3:forces:R:3 energy=-3.6904534259331845 pbc="F F F"
Ce       0.00000000       0.00000000       0.00000000       0.00000000       0.00000000       0.79065490
Ce       0.00000000       0.00000000       4.68888889       0.00000000       0.00000000      -0.79065490
2
Properties=species:S:1:pos:R:3:forces:R:3 energy=-3.6443488519763245 pbc="F F F"
Ce       0.00000000       0.00000000       0.00000000       0.00000000       0.00000000       0.75768960
Ce       0.00000000       0.00000000       4.74848485       0.00000000       0.00000000      -0.75768960
2
Properties=species:S:1:pos:R:3:forces:R:3 energy=-3.5999757712532374 pbc="F F F"
Ce       0.00000000       0.00000000       0.00000000       0.00000000       0.00000000       0.73304760
Ce       0.00000000       0.00000000       4.80808081       0.00000000       0.00000000      -0.73304760
2
Properties=species:S:1:pos:R:3:forces:R:3 energy=-3.5567924436512213 pbc="F F F"
Ce       0.00000000       0.00000000       0.00000000       0.00000000       0.00000000       0.71751773
Ce       0.00000000       0.00000000       4.86767677       0.00000000       0.00000000      -0.71751773
2
Properties=species:S:1:pos:R:3:forces:R:3 energy=-3.5143259092338632 pbc="F F F"
Ce       0.00000000       0.00000000       0.00000000       0.00000000       0.00000000       0.70823717
Ce       0.00000000       0.00000000       4.92727273       0.00000000       0.00000000      -0.70823717
2
Properties=species:S:1:pos:R:3:forces:R:3 energy=-3.47236652671421 pbc="F F F"
Ce       0.00000000       0.00000000       0.00000000       0.00000000       0.00000000       0.69944459
Ce       0.00000000       0.00000000       4.98686869       0.00000000       0.00000000      -0.69944459
2
Properties=species:S:1:pos:R:3:forces:R:3 energy=-3.431045004830572 pbc="F F F"
Ce       0.00000000       0.00000000       0.00000000       0.00000000       0.00000000       0.68679708
Ce       0.00000000       0.00000000       5.04646465       0.00000000       0.00000000      -0.68679708
2
Properties=species:S:1:pos:R:3:forces:R:3 energy=-3.3904916736865878 pbc="F F F"
Ce       0.00000000       0.00000000       0.00000000       0.00000000       0.00000000       0.67564273
Ce       0.00000000       0.00000000       5.10606061       0.00000000       0.00000000      -0.67564273
2
Properties=species:S:1:pos:R:3:forces:R:3 energy=-3.3500659475817893 pbc="F F F"
Ce       0.00000000       0.00000000       0.00000000       0.00000000       0.00000000       0.68687660
Ce       0.00000000       0.00000000       5.16565657       0.00000000       0.00000000      -0.68687660
2
Properties=species:S:1:pos:R:3:forces:R:3 energy=-3.307685392955256 pbc="F F F"
Ce       0.00000000       0.00000000       0.00000000       0.00000000       0.00000000       0.74383521
Ce       0.00000000       0.00000000       5.22525253       0.00000000       0.00000000      -0.74383521
2
Properties=species:S:1:pos:R:3:forces:R:3 energy=-3.2606692374793647 pbc="F F F"
Ce       0.00000000       0.00000000       0.00000000       0.00000000       0.00000000       0.83614284
Ce       0.00000000       0.00000000       5.28484848       0.00000000       0.00000000      -0.83614284
2
Properties=species:S:1:pos:R:3:forces:R:3 energy=-3.208486636860203 pbc="F F F"
Ce       0.00000000       0.00000000       0.00000000       0.00000000       0.00000000       0.90526521
Ce       0.00000000       0.00000000       5.34444444       0.00000000       0.00000000      -0.90526521
2
Properties=species:S:1:pos:R:3:forces:R:3 energy=-3.154322097965819 pbc="F F F"
Ce       0.00000000       0.00000000       0.00000000       0.00000000       0.00000000       0.89891690
Ce       0.00000000       0.00000000       5.40404040       0.00000000       0.00000000      -0.89891690
2
Properties=species:S:1:pos:R:3:forces:R:3 energy=-3.1024404782739032 pbc="F F F"
Ce       0.00000000       0.00000000       0.00000000       0.00000000       0.00000000       0.83938599
Ce       0.00000000       0.00000000       5.46363636       0.00000000       0.00000000      -0.83938599
2
Properties=species:S:1:pos:R:3:forces:R:3 energy=-3.053501800199104 pbc="F F F"
Ce       0.00000000       0.00000000       0.00000000       0.00000000       0.00000000       0.81943750
Ce       0.00000000       0.00000000       5.52323232       0.00000000       0.00000000      -0.81943750
2
Properties=species:S:1:pos:R:3:forces:R:3 energy=-3.0022190222202068 pbc="F F F"
Ce       0.00000000       0.00000000       0.00000000       0.00000000       0.00000000       0.92468798
Ce       0.00000000       0.00000000       5.58282828       0.00000000       0.00000000      -0.92468798
2
Properties=species:S:1:pos:R:3:forces:R:3 energy=-2.941208460918753 pbc="F F F"
Ce       0.00000000       0.00000000       0.00000000       0.00000000       0.00000000       1.12915897
Ce       0.00000000       0.00000000       5.64242424       0.00000000       0.00000000      -1.12915897
2
Properties=species:S:1:pos:R:3:forces:R:3 energy=-2.8688082561952544 pbc="F F F"
Ce       0.00000000       0.00000000       0.00000000       0.00000000       0.00000000       1.27156520
Ce       0.00000000       0.00000000       5.70202020       0.00000000       0.00000000      -1.27156520
2
Properties=species:S:1:pos:R:3:forces:R:3 energy=-2.7943481181161403 pbc="F F F"
Ce       0.00000000       0.00000000       0.00000000       0.00000000       0.00000000       1.18607438
Ce       0.00000000       0.00000000       5.76161616       0.00000000       0.00000000      -1.18607438
2
Properties=species:S:1:pos:R:3:forces:R:3 energy=-2.7322372289376 pbc="F F F"
Ce       0.00000000       0.00000000       0.00000000       0.00000000       0.00000000       0.86579001
Ce       0.00000000       0.00000000       5.82121212       0.00000000       0.00000000      -0.86579001
2
Properties=species:S:1:pos:R:3:forces:R:3 energy=-2.6930795802990515 pbc="F F F"
Ce       0.00000000       0.00000000       0.00000000       0.00000000       0.00000000       0.45380989
Ce       0.00000000       0.00000000       5.88080808       0.00000000       0.00000000      -0.45380989
2
Properties=species:S:1:pos:R:3:forces:R:3 energy=-2.676296317033201 pbc="F F F"
Ce       0.00000000       0.00000000       0.00000000       0.00000000       0.00000000       0.12915108
Ce       0.00000000       0.00000000       5.94040404       0.00000000       0.00000000      -0.12915108
2
Properties=species:S:1:pos:R:3:forces:R:3 energy=-2.6734674135546412 pbc="F F F"
Ce       0.00000000       0.00000000       0.00000000       0.00000000       0.00000000       0.00735437
Ce       0.00000000       0.00000000       6.00000000       0.00000000       0.00000000      -0.00735437
