2
Properties=species:S:1:pos:R:3:forces:R:3 energy=7433.878179148142 pbc="F F F"
Cl       0.00000000       0.00000000       0.00000000       0.00000000       0.00000000 -157121.81250000
Cl       0.00000000       0.00000000       0.10000000       0.00000000       0.00000000  157121.81250000
2
Properties=species:S:1:pos:R:3:forces:R:3 energy=2542.3596244606424 pbc="F F F"
Cl       0.00000000       0.00000000       0.00000000       0.00000000       0.00000000  -39459.40625000
Cl       0.00000000       0.00000000       0.15959596       0.00000000       0.00000000   39459.40625000
2
Properties=species:S:1:pos:R:3:forces:R:3 energy=1118.51379926533 pbc="F F F"
Cl       0.00000000       0.00000000       0.00000000       0.00000000       0.00000000  -13707.53027344
Cl       0.00000000       0.00000000       0.21919192       0.00000000       0.00000000   13707.53027344
2
Properties=species:S:1:pos:R:3:forces:R:3 energy=579.7521415504863 pbc="F F F"
Cl       0.00000000       0.00000000       0.00000000       0.00000000       0.00000000   -5735.25683594
Cl       0.00000000       0.00000000       0.27878788       0.00000000       0.00000000    5735.25683594
2
Properties=species:S:1:pos:R:3:forces:R:3 energy=341.6186881876813 pbc="F F F"
Cl       0.00000000       0.00000000       0.00000000       0.00000000       0.00000000   -2694.38012695
Cl       0.00000000       0.00000000       0.33838384       0.00000000       0.00000000    2694.38012695
2
Properties=species:S:1:pos:R:3:forces:R:3 energy=226.14856491567258 pbc="F F F"
Cl       0.00000000       0.00000000       0.00000000       0.00000000       0.00000000   -1346.68872070
Cl       0.00000000       0.00000000       0.39797980       0.00000000       0.00000000    1346.68872070
2
Properties=species:S:1:pos:R:3:forces:R:3 energy=168.0201011990658 pbc="F F F"
Cl       0.00000000       0.00000000       0.00000000       0.00000000       0.00000000    -676.30029297
Cl       0.00000000       0.00000000       0.45757576       0.00000000       0.00000000     676.30029297
2
Properties=species:S:1:pos:R:3:forces:R:3 energy=139.43048638792254 pbc="F F F"
Cl       0.00000000       0.00000000       0.00000000       0.00000000       0.00000000    -319.58316040
Cl       0.00000000       0.00000000       0.51717172       0.00000000       0.00000000     319.58316040
2
Properties=species:S:1:pos:R:3:forces:R:3 energy=126.63549594657424 pbc="F F F"
Cl       0.00000000       0.00000000       0.00000000       0.00000000       0.00000000    -131.32991028
Cl       0.00000000       0.00000000       0.57676768       0.00000000       0.00000000     131.32991028
2
Properties=species:S:1:pos:R:3:forces:R:3 energy=121.63854025239024 pbc="F F F"
Cl       0.00000000       0.00000000       0.00000000       0.00000000       0.00000000     -51.61428070
Cl       0.00000000       0.00000000       0.63636364       0.00000000       0.00000000      51.61428070
2
Properties=species:S:1:pos:R:3:forces:R:3 energy=118.92374255119013 pbc="F F F"
Cl       0.00000000       0.00000000       0.00000000       0.00000000       0.00000000     -50.46883392
Cl       0.00000000       0.00000000       0.69595960       0.00000000       0.00000000      50.46883392
2
Properties=species:S:1:pos:R:3:forces:R:3 energy=114.57409545053783 pbc="F F F"
Cl       0.00000000       0.00000000       0.00000000       0.00000000       0.00000000    -101.98419189
Cl       0.00000000       0.00000000       0.75555556       0.00000000       0.00000000     101.98419189
2
Properties=species:S:1:pos:R:3:forces:R:3 energy=106.31763398376647 pbc="F F F"
Cl       0.00000000       0.00000000       0.00000000       0.00000000       0.00000000    -175.71516418
Cl       0.00000000       0.00000000       0.81515152       0.00000000       0.00000000     175.71516418
2
Properties=species:S:1:pos:R:3:forces:R:3 energy=94.01482423032175 pbc="F F F"
Cl       0.00000000       0.00000000       0.00000000       0.00000000       0.00000000    -230.47731018
Cl       0.00000000       0.00000000       0.87474747       0.00000000       0.00000000     230.47731018
2
Properties=species:S:1:pos:R:3:forces:R:3 energy=79.68727272104739 pbc="F F F"
Cl       0.00000000       0.00000000       0.00000000       0.00000000       0.00000000    -245.20033264
Cl       0.00000000       0.00000000       0.93434343       0.00000000       0.00000000     245.20033264
2
Properties=species:S:1:pos:R:3:forces:R:3 energy=65.17387728773438 pbc="F F F"
Cl       0.00000000       0.00000000       0.00000000       0.00000000       0.00000000    -239.14108276
Cl       0.00000000       0.00000000       0.99393939       0.00000000       0.00000000     239.14108276
2
Properties=species:S:1:pos:R:3:forces:R:3 energy=51.53462037273942 pbc="F F F"
Cl       0.00000000       0.00000000       0.00000000       0.00000000       0.00000000    -215.95101929
Cl       0.00000000       0.00000000       1.05353535       0.00000000       0.00000000     215.95101929
2
Properties=species:S:1:pos:R:3:forces:R:3 energy=39.60277699160131 pbc="F F F"
Cl       0.00000000       0.00000000       0.00000000       0.00000000       0.00000000    -184.30335999
Cl       0.00000000       0.00000000       1.11313131       0.00000000       0.00000000     184.30335999
2
Properties=species:S:1:pos:R:3:forces:R:3 energy=29.541831920424933 pbc="F F F"
Cl       0.00000000       0.00000000       0.00000000       0.00000000       0.00000000    -153.47492981
Cl       0.00000000       0.00000000       1.17272727       0.00000000       0.00000000     153.47492981
2
Properties=species:S:1:pos:R:3:forces:R:3 energy=21.289447537269844 pbc="F F F"
Cl       0.00000000       0.00000000       0.00000000       0.00000000       0.00000000    -123.81176758
Cl       0.00000000       0.00000000       1.23232323       0.00000000       0.00000000     123.81176758
2
Properties=species:S:1:pos:R:3:forces:R:3 energy=14.733687567529639 pbc="F F F"
Cl       0.00000000       0.00000000       0.00000000       0.00000000       0.00000000     -96.64270782
Cl       0.00000000       0.00000000       1.29191919       0.00000000       0.00000000      96.64270782
2
Properties=species:S:1:pos:R:3:forces:R:3 energy=9.706566424520126 pbc="F F F"
Cl       0.00000000       0.00000000       0.00000000       0.00000000       0.00000000     -72.75244141
Cl       0.00000000       0.00000000       1.35151515       0.00000000       0.00000000      72.75244141
2
Properties=species:S:1:pos:R:3:forces:R:3 energy=5.963324486757499 pbc="F F F"
Cl       0.00000000       0.00000000       0.00000000       0.00000000       0.00000000     -53.76013565
Cl       0.00000000       0.00000000       1.41111111       0.00000000       0.00000000      53.76013565
2
Properties=species:S:1:pos:R:3:forces:R:3 energy=3.2006093649426712 pbc="F F F"
Cl       0.00000000       0.00000000       0.00000000       0.00000000       0.00000000     -39.66341782
Cl       0.00000000       0.00000000       1.47070707       0.00000000       0.00000000      39.66341782
2
Properties=species:S:1:pos:R:3:forces:R:3 energy=1.1652354909235823 pbc="F F F"
Cl       0.00000000       0.00000000       0.00000000       0.00000000       0.00000000     -29.13625526
Cl       0.00000000       0.00000000       1.53030303       0.00000000       0.00000000      29.13625526
2
Properties=species:S:1:pos:R:3:forces:R:3 energy=-0.32269260907256087 pbc="F F F"
Cl       0.00000000       0.00000000       0.00000000       0.00000000       0.00000000     -21.16307449
Cl       0.00000000       0.00000000       1.58989899       0.00000000       0.00000000      21.16307449
2
Properties=species:S:1:pos:R:3:forces:R:3 energy=-1.3954238882964496 pbc="F F F"
Cl       0.00000000       0.00000000       0.00000000       0.00000000       0.00000000     -15.11898899
Cl       0.00000000       0.00000000       1.64949495       0.00000000       0.00000000      15.11898899
2
Properties=species:S:1:pos:R:3:forces:R:3 energy=-2.1543638722002787 pbc="F F F"
Cl       0.00000000       0.00000000       0.00000000       0.00000000       0.00000000     -10.56599426
Cl       0.00000000       0.00000000       1.70909091       0.00000000       0.00000000      10.56599426
2
Properties=species:S:1:pos:R:3:forces:R:3 energy=-2.676721244068607 pbc="F F F"
Cl       0.00000000       0.00000000       0.00000000       0.00000000       0.00000000      -7.11845160
Cl       0.00000000       0.00000000       1.76868687       0.00000000       0.00000000       7.11845160
2
Properties=species:S:1:pos:R:3:forces:R:3 energy=-3.018299177466546 pbc="F F F"
Cl       0.00000000       0.00000000       0.00000000       0.00000000       0.00000000      -4.45354319
Cl       0.00000000       0.00000000       1.82828283       0.00000000       0.00000000       4.45354319
2
Properties=species:S:1:pos:R:3:forces:R:3 energy=-3.218636434672504 pbc="F F F"
Cl       0.00000000       0.00000000       0.00000000       0.00000000       0.00000000      -2.34965324
Cl       0.00000000       0.00000000       1.88787879       0.00000000       0.00000000       2.34965324
2
Properties=species:S:1:pos:R:3:forces:R:3 energy=-3.3067955990749014 pbc="F F F"
Cl       0.00000000       0.00000000       0.00000000       0.00000000       0.00000000      -0.67284536
Cl       0.00000000       0.00000000       1.94747475       0.00000000       0.00000000       0.67284536
2
Properties=species:S:1:pos:R:3:forces:R:3 energy=-3.305946373748198 pbc="F F F"
Cl       0.00000000       0.00000000       0.00000000       0.00000000       0.00000000       0.64525646
Cl       0.00000000       0.00000000       2.00707071       0.00000000       0.00000000      -0.64525646
2
Properties=species:S:1:pos:R:3:forces:R:3 energy=-3.236023070963293 pbc="F F F"
Cl       0.00000000       0.00000000       0.00000000       0.00000000       0.00000000       1.65634513
Cl       0.00000000       0.00000000       2.06666667       0.00000000       0.00000000      -1.65634513
2
Properties=species:S:1:pos:R:3:forces:R:3 energy=-3.112738503440889 pbc="F F F"
Cl       0.00000000       0.00000000       0.00000000       0.00000000       0.00000000       2.45641756
Cl       0.00000000       0.00000000       2.12626263       0.00000000       0.00000000      -2.45641756
2
Properties=species:S:1:pos:R:3:forces:R:3 energy=-2.9450468035247876 pbc="F F F"
Cl       0.00000000       0.00000000       0.00000000       0.00000000       0.00000000       3.16174698
Cl       0.00000000       0.00000000       2.18585859       0.00000000       0.00000000      -3.16174698
2
Properties=species:S:1:pos:R:3:forces:R:3 energy=-2.7374294882242625 pbc="F F F"
Cl       0.00000000       0.00000000       0.00000000       0.00000000       0.00000000       3.78224969
Cl       0.00000000       0.00000000       2.24545455       0.00000000       0.00000000      -3.78224969
2
Properties=species:S:1:pos:R:3:forces:R:3 energy=-2.499235042052578 pbc="F F F"
Cl       0.00000000       0.00000000       0.00000000       0.00000000       0.00000000       4.14972973
Cl       0.00000000       0.00000000       2.30505051       0.00000000       0.00000000      -4.14972973
2
Properties=species:S:1:pos:R:3:forces:R:3 energy=-2.251775253468864 pbc="F F F"
Cl       0.00000000       0.00000000       0.00000000       0.00000000       0.00000000       4.07434082
Cl       0.00000000       0.00000000       2.36464646       0.00000000       0.00000000      -4.07434082
2
Properties=species:S:1:pos:R:3:forces:R:3 energy=-2.022129359411196 pbc="F F F"
Cl       0.00000000       0.00000000       0.00000000       0.00000000       0.00000000       3.57779503
Cl       0.00000000       0.00000000       2.42424242       0.00000000       0.00000000      -3.57779503
2
Properties=species:S:1:pos:R:3:forces:R:3 energy=-1.8291592124096174 pbc="F F F"
Cl       0.00000000       0.00000000       0.00000000       0.00000000       0.00000000       2.88833666
Cl       0.00000000       0.00000000       2.48383838       0.00000000       0.00000000      -2.88833666
2
Properties=species:S:1:pos:R:3:forces:R:3 energy=-1.6769604819146375 pbc="F F F"
Cl       0.00000000       0.00000000       0.00000000       0.00000000       0.00000000       2.23952794
Cl       0.00000000       0.00000000       2.54343434       0.00000000       0.00000000      -2.23952794
2
Properties=species:S:1:pos:R:3:forces:R:3 energy=-1.5591526329353478 pbc="F F F"
Cl       0.00000000       0.00000000       0.00000000       0.00000000       0.00000000       1.74158835
Cl       0.00000000       0.00000000       2.60303030       0.00000000       0.00000000      -1.74158835
2
Properties=species:S:1:pos:R:3:forces:R:3 energy=-1.4663328413904746 pbc="F F F"
Cl       0.00000000       0.00000000       0.00000000       0.00000000       0.00000000       1.39540648
Cl       0.00000000       0.00000000       2.66262626       0.00000000       0.00000000      -1.39540648
2
Properties=species:S:1:pos:R:3:forces:R:3 energy=-1.3907150230045175 pbc="F F F"
Cl       0.00000000       0.00000000       0.00000000       0.00000000       0.00000000       1.15584600
Cl       0.00000000       0.00000000       2.72222222       0.00000000       0.00000000      -1.15584600
2
Properties=species:S:1:pos:R:3:forces:R:3 energy=-1.327379387948771 pbc="F F F"
Cl       0.00000000       0.00000000       0.00000000       0.00000000       0.00000000       0.97659719
Cl       0.00000000       0.00000000       2.78181818       0.00000000       0.00000000      -0.97659719
2
Properties=species:S:1:pos:R:3:forces:R:3 energy=-1.2737340135985196 pbc="F F F"
Cl       0.00000000       0.00000000       0.00000000       0.00000000       0.00000000       0.82699364
Cl       0.00000000       0.00000000       2.84141414       0.00000000       0.00000000      -0.82699364
2
Properties=species:S:1:pos:R:3:forces:R:3 energy=-1.228525301625679 pbc="F F F"
Cl       0.00000000       0.00000000       0.00000000       0.00000000       0.00000000       0.69197869
Cl       0.00000000       0.00000000       2.90101010       0.00000000       0.00000000      -0.69197869
2
Properties=species:S:1:pos:R:3:forces:R:3 energy=-1.1910628438871305 pbc="F F F"
Cl       0.00000000       0.00000000       0.00000000       0.00000000       0.00000000       0.56686175
Cl       0.00000000       0.00000000       2.96060606       0.00000000       0.00000000      -0.56686175
2
Properties=species:S:1:pos:R:3:forces:R:3 energy=-1.1607455093098755 pbc="F F F"
Cl       0.00000000       0.00000000       0.00000000       0.00000000       0.00000000       0.45262223
Cl       0.00000000       0.00000000       3.02020202       0.00000000       0.00000000      -0.45262223
2
Properties=species:S:1:pos:R:3:forces:R:3 energy=-1.1368278754710843 pbc="F F F"
Cl       0.00000000       0.00000000       0.00000000       0.00000000       0.00000000       0.35278764
Cl       0.00000000       0.00000000       3.07979798       0.00000000       0.00000000      -0.35278764
2
Properties=species:S:1:pos:R:3:forces:R:3 energy=-1.1183283327471603 pbc="F F F"
Cl       0.00000000       0.00000000       0.00000000       0.00000000       0.00000000       0.27140060
Cl       0.00000000       0.00000000       3.13939394       0.00000000       0.00000000      -0.27140060
2
Properties=species:S:1:pos:R:3:forces:R:3 energy=-1.104052479348877 pbc="F F F"
Cl       0.00000000       0.00000000       0.00000000       0.00000000       0.00000000       0.21139032
Cl       0.00000000       0.00000000       3.19898990       0.00000000       0.00000000      -0.21139032
2
Properties=species:S:1:pos:R:3:forces:R:3 energy=-1.0926950460159386 pbc="F F F"
Cl       0.00000000       0.00000000       0.00000000       0.00000000       0.00000000       0.17329967
Cl       0.00000000       0.00000000       3.25858586       0.00000000       0.00000000      -0.17329967
2
Properties=species:S:1:pos:R:3:forces:R:3 energy=-1.0830072939539477 pbc="F F F"
Cl       0.00000000       0.00000000       0.00000000       0.00000000       0.00000000       0.15474571
Cl       0.00000000       0.00000000       3.31818182       0.00000000       0.00000000      -0.15474571
2
Properties=species:S:1:pos:R:3:forces:R:3 energy=-1.0739591267969073 pbc="F F F"
Cl       0.00000000       0.00000000       0.00000000       0.00000000       0.00000000       0.15083398
Cl       0.00000000       0.00000000       3.37777778       0.00000000       0.00000000      -0.15083398
2
Properties=species:S:1:pos:R:3:forces:R:3 energy=-1.0648609351724294 pbc="F F F"
Cl       0.00000000       0.00000000       0.00000000       0.00000000       0.00000000       0.15538956
Cl       0.00000000       0.00000000       3.43737374       0.00000000       0.00000000      -0.15538956
2
Properties=species:S:1:pos:R:3:forces:R:3 energy=-1.0553878219460502 pbc="F F F"
Cl       0.00000000       0.00000000       0.00000000       0.00000000       0.00000000       0.16249940
Cl       0.00000000       0.00000000       3.49696970       0.00000000       0.00000000      -0.16249940
2
Properties=species:S:1:pos:R:3:forces:R:3 energy=-1.0455304262214036 pbc="F F F"
Cl       0.00000000       0.00000000       0.00000000       0.00000000       0.00000000       0.16774535
Cl       0.00000000       0.00000000       3.55656566       0.00000000       0.00000000      -0.16774535
2
Properties=species:S:1:pos:R:3:forces:R:3 energy=-1.0354794147063382 pbc="F F F"
Cl       0.00000000       0.00000000       0.00000000       0.00000000       0.00000000       0.16878505
Cl       0.00000000       0.00000000       3.61616162       0.00000000       0.00000000      -0.16878505
2
Properties=species:S:1:pos:R:3:forces:R:3 energy=-1.025504546888474 pbc="F F F"
Cl       0.00000000       0.00000000       0.00000000       0.00000000       0.00000000       0.16525629
Cl       0.00000000       0.00000000       3.67575758       0.00000000       0.00000000      -0.16525629
2
Properties=species:S:1:pos:R:3:forces:R:3 energy=-1.0158520964414777 pbc="F F F"
Cl       0.00000000       0.00000000       0.00000000       0.00000000       0.00000000       0.15824082
Cl       0.00000000       0.00000000       3.73535354       0.00000000       0.00000000      -0.15824082
2
Properties=species:S:1:pos:R:3:forces:R:3 energy=-1.0066770679046486 pbc="F F F"
Cl       0.00000000       0.00000000       0.00000000       0.00000000       0.00000000       0.14954184
Cl       0.00000000       0.00000000       3.79494949       0.00000000       0.00000000      -0.14954184
2
Properties=species:S:1:pos:R:3:forces:R:3 energy=-0.9980230950784531 pbc="F F F"
Cl       0.00000000       0.00000000       0.00000000       0.00000000       0.00000000       0.14105582
Cl       0.00000000       0.00000000       3.85454545       0.00000000       0.00000000      -0.14105582
2
Properties=species:S:1:pos:R:3:forces:R:3 energy=-0.9898289916157647 pbc="F F F"
Cl       0.00000000       0.00000000       0.00000000       0.00000000       0.00000000       0.13432594
Cl       0.00000000       0.00000000       3.91414141       0.00000000       0.00000000      -0.13432594
2
Properties=species:S:1:pos:R:3:forces:R:3 energy=-0.9819580218621615 pbc="F F F"
Cl       0.00000000       0.00000000       0.00000000       0.00000000       0.00000000       0.13032229
Cl       0.00000000       0.00000000       3.97373737       0.00000000       0.00000000      -0.13032229
2
Properties=species:S:1:pos:R:3:forces:R:3 energy=-0.9742343163340415 pbc="F F F"
Cl       0.00000000       0.00000000       0.00000000       0.00000000       0.00000000       0.12938985
Cl       0.00000000       0.00000000       4.03333333       0.00000000       0.00000000      -0.12938985
2
Properties=species:S:1:pos:R:3:forces:R:3 energy=-0.9664782547028637 pbc="F F F"
Cl       0.00000000       0.00000000       0.00000000       0.00000000       0.00000000       0.13133198
Cl       0.00000000       0.00000000       4.09292929       0.00000000       0.00000000      -0.13133198
2
Properties=species:S:1:pos:R:3:forces:R:3 energy=-0.9585351793948198 pbc="F F F"
Cl       0.00000000       0.00000000       0.00000000       0.00000000       0.00000000       0.13553591
Cl       0.00000000       0.00000000       4.15252525       0.00000000       0.00000000      -0.13553591
2
Properties=species:S:1:pos:R:3:forces:R:3 energy=-0.9502958160173457 pbc="F F F"
Cl       0.00000000       0.00000000       0.00000000       0.00000000       0.00000000       0.14113785
Cl       0.00000000       0.00000000       4.21212121       0.00000000       0.00000000      -0.14113785
2
Properties=species:S:1:pos:R:3:forces:R:3 energy=-0.9417042611734774 pbc="F F F"
Cl       0.00000000       0.00000000       0.00000000       0.00000000       0.00000000       0.14718662
Cl       0.00000000       0.00000000       4.27171717       0.00000000       0.00000000      -0.14718662
2
Properties=species:S:1:pos:R:3:forces:R:3 energy=-0.9327607971354201 pbc="F F F"
Cl       0.00000000       0.00000000       0.00000000       0.00000000       0.00000000       0.15281068
Cl       0.00000000       0.00000000       4.33131313       0.00000000       0.00000000      -0.15281068
2
Properties=species:S:1:pos:R:3:forces:R:3 energy=-0.9235116683560465 pbc="F F F"
Cl       0.00000000       0.00000000       0.00000000       0.00000000       0.00000000       0.15737380
Cl       0.00000000       0.00000000       4.39090909       0.00000000       0.00000000      -0.15737380
2
Properties=species:S:1:pos:R:3:forces:R:3 energy=-0.9140295968777188 pbc="F F F"
Cl       0.00000000       0.00000000       0.00000000       0.00000000       0.00000000       0.16061437
Cl       0.00000000       0.00000000       4.45050505       0.00000000       0.00000000      -0.16061437
2
Properties=species:S:1:pos:R:3:forces:R:3 energy=-0.9043896915523996 pbc="F F F"
Cl       0.00000000       0.00000000       0.00000000       0.00000000       0.00000000       0.16275591
Cl       0.00000000       0.00000000       4.51010101       0.00000000       0.00000000      -0.16275591
2
Properties=species:S:1:pos:R:3:forces:R:3 energy=-0.8946380767835863 pbc="F F F"
Cl       0.00000000       0.00000000       0.00000000       0.00000000       0.00000000       0.16454722
Cl       0.00000000       0.00000000       4.56969697       0.00000000       0.00000000      -0.16454722
2
Properties=species:S:1:pos:R:3:forces:R:3 energy=-0.8847597812539093 pbc="F F F"
Cl       0.00000000       0.00000000       0.00000000       0.00000000       0.00000000       0.16722690
Cl       0.00000000       0.00000000       4.62929293       0.00000000       0.00000000      -0.16722690
2
Properties=species:S:1:pos:R:3:forces:R:3 energy=-0.8746569447998986 pbc="F F F"
Cl       0.00000000       0.00000000       0.00000000       0.00000000       0.00000000       0.17236957
Cl       0.00000000       0.00000000       4.68888889       0.00000000       0.00000000      -0.17236957
2
Properties=species:S:1:pos:R:3:forces:R:3 energy=-0.8641339794193004 pbc="F F F"
Cl       0.00000000       0.00000000       0.00000000       0.00000000       0.00000000       0.18155889
Cl       0.00000000       0.00000000       4.74848485       0.00000000       0.00000000      -0.18155889
2
Properties=species:S:1:pos:R:3:forces:R:3 energy=-0.8529139609443669 pbc="F F F"
Cl       0.00000000       0.00000000       0.00000000       0.00000000       0.00000000       0.19588614
Cl       0.00000000       0.00000000       4.80808081       0.00000000       0.00000000      -0.19588614
2
Properties=species:S:1:pos:R:3:forces:R:3 energy=-0.8406828649837678 pbc="F F F"
Cl       0.00000000       0.00000000       0.00000000       0.00000000       0.00000000       0.21533678
Cl       0.00000000       0.00000000       4.86767677       0.00000000       0.00000000      -0.21533678
2
Properties=species:S:1:pos:R:3:forces:R:3 energy=-0.8271784994284611 pbc="F F F"
Cl       0.00000000       0.00000000       0.00000000       0.00000000       0.00000000       0.23817530
Cl       0.00000000       0.00000000       4.92727273       0.00000000       0.00000000      -0.23817530
2
Properties=species:S:1:pos:R:3:forces:R:3 energy=-0.8122977541944661 pbc="F F F"
Cl       0.00000000       0.00000000       0.00000000       0.00000000       0.00000000       0.26079187
Cl       0.00000000       0.00000000       4.98686869       0.00000000       0.00000000      -0.26079187
2
Properties=species:S:1:pos:R:3:forces:R:3 energy=-0.7961921132063704 pbc="F F F"
Cl       0.00000000       0.00000000       0.00000000       0.00000000       0.00000000       0.27862850
Cl       0.00000000       0.00000000       5.04646465       0.00000000       0.00000000      -0.27862850
2
Properties=species:S:1:pos:R:3:forces:R:3 energy=-0.7792392210018834 pbc="F F F"
Cl       0.00000000       0.00000000       0.00000000       0.00000000       0.00000000       0.28911874
Cl       0.00000000       0.00000000       5.10606061       0.00000000       0.00000000      -0.28911874
2
Properties=species:S:1:pos:R:3:forces:R:3 energy=-0.761801926099609 pbc="F F F"
Cl       0.00000000       0.00000000       0.00000000       0.00000000       0.00000000       0.29622251
Cl       0.00000000       0.00000000       5.16565657       0.00000000       0.00000000      -0.29622251
2
Properties=species:S:1:pos:R:3:forces:R:3 energy=-0.7437588344208164 pbc="F F F"
Cl       0.00000000       0.00000000       0.00000000       0.00000000       0.00000000       0.31193048
Cl       0.00000000       0.00000000       5.22525253       0.00000000       0.00000000      -0.31193048
2
Properties=species:S:1:pos:R:3:forces:R:3 energy=-0.7242496194342708 pbc="F F F"
Cl       0.00000000       0.00000000       0.00000000       0.00000000       0.00000000       0.34568983
Cl       0.00000000       0.00000000       5.28484848       0.00000000       0.00000000      -0.34568983
2
Properties=species:S:1:pos:R:3:forces:R:3 energy=-0.7024106713935621 pbc="F F F"
Cl       0.00000000       0.00000000       0.00000000       0.00000000       0.00000000       0.38600981
Cl       0.00000000       0.00000000       5.34444444       0.00000000       0.00000000      -0.38600981
2
Properties=species:S:1:pos:R:3:forces:R:3 energy=-0.6786644065961744 pbc="F F F"
Cl       0.00000000       0.00000000       0.00000000       0.00000000       0.00000000       0.40559152
Cl       0.00000000       0.00000000       5.40404040       0.00000000       0.00000000      -0.40559152
2
Properties=species:S:1:pos:R:3:forces:R:3 energy=-0.6546976287195554 pbc="F F F"
Cl       0.00000000       0.00000000       0.00000000       0.00000000       0.00000000       0.39431745
Cl       0.00000000       0.00000000       5.46363636       0.00000000       0.00000000      -0.39431745
2
Properties=species:S:1:pos:R:3:forces:R:3 energy=-0.6319090070346286 pbc="F F F"
Cl       0.00000000       0.00000000       0.00000000       0.00000000       0.00000000       0.37142235
Cl       0.00000000       0.00000000       5.52323232       0.00000000       0.00000000      -0.37142235
2
Properties=species:S:1:pos:R:3:forces:R:3 energy=-0.6101260878129263 pbc="F F F"
Cl       0.00000000       0.00000000       0.00000000       0.00000000       0.00000000       0.36317712
Cl       0.00000000       0.00000000       5.58282828       0.00000000       0.00000000      -0.36317712
2
Properties=species:S:1:pos:R:3:forces:R:3 energy=-0.5882815611026329 pbc="F F F"
Cl       0.00000000       0.00000000       0.00000000       0.00000000       0.00000000       0.37057272
Cl       0.00000000       0.00000000       5.64242424       0.00000000       0.00000000      -0.37057272
2
Properties=species:S:1:pos:R:3:forces:R:3 energy=-0.5662993938696462 pbc="F F F"
Cl       0.00000000       0.00000000       0.00000000       0.00000000       0.00000000       0.36004287
Cl       0.00000000       0.00000000       5.70202020       0.00000000       0.00000000      -0.36004287
2
Properties=species:S:1:pos:R:3:forces:R:3 energy=-0.5463781742384257 pbc="F F F"
Cl       0.00000000       0.00000000       0.00000000       0.00000000       0.00000000       0.30084029
Cl       0.00000000       0.00000000       5.76161616       0.00000000       0.00000000      -0.30084029
2
Properties=species:S:1:pos:R:3:forces:R:3 energy=-0.5312421262626924 pbc="F F F"
Cl       0.00000000       0.00000000       0.00000000       0.00000000       0.00000000       0.20281382
Cl       0.00000000       0.00000000       5.82121212       0.00000000       0.00000000      -0.20281382
2
Properties=species:S:1:pos:R:3:forces:R:3 energy=-0.5222840694937015 pbc="F F F"
Cl       0.00000000       0.00000000       0.00000000       0.00000000       0.00000000       0.10136315
Cl       0.00000000       0.00000000       5.88080808       0.00000000       0.00000000      -0.10136315
2
Properties=species:S:1:pos:R:3:forces:R:3 energy=-0.5185776454613247 pbc="F F F"
Cl       0.00000000       0.00000000       0.00000000       0.00000000       0.00000000       0.02813437
Cl       0.00000000       0.00000000       5.94040404       0.00000000       0.00000000      -0.02813437
2
Properties=species:S:1:pos:R:3:forces:R:3 energy=-0.5179685592136144 pbc="F F F"
Cl       0.00000000       0.00000000       0.00000000       0.00000000       0.00000000       0.00142215
Cl       0.00000000       0.00000000       6.00000000       0.00000000       0.00000000      -0.00142215
