2
Properties=species:S:1:pos:R:3:forces:R:3 energy=14847.308621160588 pbc="F F F"
Fe       0.00000000       0.00000000       0.00000000       0.00000000       0.00000000 -331601.12500000
Fe       0.00000000       0.00000000       0.10000000       0.00000000       0.00000000  331601.12500000
2
Properties=species:S:1:pos:R:3:forces:R:3 energy=4750.044461004339 pbc="F F F"
Fe       0.00000000       0.00000000       0.00000000       0.00000000       0.00000000  -78843.69531250
Fe       0.00000000       0.00000000       0.15959596       0.00000000       0.00000000   78843.69531250
2
Properties=species:S:1:pos:R:3:forces:R:3 energy=1954.9333770199632 pbc="F F F"
Fe       0.00000000       0.00000000       0.00000000       0.00000000       0.00000000  -26301.91210938
Fe       0.00000000       0.00000000       0.21919192       0.00000000       0.00000000   26301.91210938
2
Properties=species:S:1:pos:R:3:forces:R:3 energy=935.4842803434436 pbc="F F F"
Fe       0.00000000       0.00000000       0.00000000       0.00000000       0.00000000  -10663.46777344
Fe       0.00000000       0.00000000       0.27878788       0.00000000       0.00000000   10663.46777344
2
Properties=species:S:1:pos:R:3:forces:R:3 energy=497.82473444500613 pbc="F F F"
Fe       0.00000000       0.00000000       0.00000000       0.00000000       0.00000000   -4886.50390625
Fe       0.00000000       0.00000000       0.33838384       0.00000000       0.00000000    4886.50390625
2
Properties=species:S:1:pos:R:3:forces:R:3 energy=289.59240412907616 pbc="F F F"
Fe       0.00000000       0.00000000       0.00000000       0.00000000       0.00000000   -2424.05712891
Fe       0.00000000       0.00000000       0.39797980       0.00000000       0.00000000    2424.05712891
2
Properties=species:S:1:pos:R:3:forces:R:3 energy=183.67994380826337 pbc="F F F"
Fe       0.00000000       0.00000000       0.00000000       0.00000000       0.00000000   -1266.86242676
Fe       0.00000000       0.00000000       0.45757576       0.00000000       0.00000000    1266.86242676
2
Properties=species:S:1:pos:R:3:forces:R:3 energy=127.43526914465312 pbc="F F F"
Fe       0.00000000       0.00000000       0.00000000       0.00000000       0.00000000    -683.91143799
Fe       0.00000000       0.00000000       0.51717172       0.00000000       0.00000000     683.91143799
2
Properties=species:S:1:pos:R:3:forces:R:3 energy=96.82055360015946 pbc="F F F"
Fe       0.00000000       0.00000000       0.00000000       0.00000000       0.00000000    -374.90512085
Fe       0.00000000       0.00000000       0.57676768       0.00000000       0.00000000     374.90512085
2
Properties=species:S:1:pos:R:3:forces:R:3 energy=80.01096807955555 pbc="F F F"
Fe       0.00000000       0.00000000       0.00000000       0.00000000       0.00000000    -205.97169495
Fe       0.00000000       0.00000000       0.63636364       0.00000000       0.00000000     205.97169495
2
Properties=species:S:1:pos:R:3:forces:R:3 energy=70.7384538186572 pbc="F F F"
Fe       0.00000000       0.00000000       0.00000000       0.00000000       0.00000000    -115.20225525
Fe       0.00000000       0.00000000       0.69595960       0.00000000       0.00000000     115.20225525
2
Properties=species:S:1:pos:R:3:forces:R:3 energy=65.30209072832308 pbc="F F F"
Fe       0.00000000       0.00000000       0.00000000       0.00000000       0.00000000     -74.12792206
Fe       0.00000000       0.00000000       0.75555556       0.00000000       0.00000000      74.12792206
2
Properties=species:S:1:pos:R:3:forces:R:3 energy=61.18465165154069 pbc="F F F"
Fe       0.00000000       0.00000000       0.00000000       0.00000000       0.00000000     -69.31469727
Fe       0.00000000       0.00000000       0.81515152       0.00000000       0.00000000      69.31469727
2
Properties=species:S:1:pos:R:3:forces:R:3 energy=56.516946391252546 pbc="F F F"
Fe       0.00000000       0.00000000       0.00000000       0.00000000       0.00000000     -90.65927124
Fe       0.00000000       0.00000000       0.87474747       0.00000000       0.00000000      90.65927124
2
Properties=species:S:1:pos:R:3:forces:R:3 energy=50.13706396839467 pbc="F F F"
Fe       0.00000000       0.00000000       0.00000000       0.00000000       0.00000000    -124.10331726
Fe       0.00000000       0.00000000       0.93434343       0.00000000       0.00000000     124.10331726
2
Properties=species:S:1:pos:R:3:forces:R:3 energy=41.80037933259602 pbc="F F F"
Fe       0.00000000       0.00000000       0.00000000       0.00000000       0.00000000    -153.91540527
Fe       0.00000000       0.00000000       0.99393939       0.00000000       0.00000000     153.91540527
2
Properties=species:S:1:pos:R:3:forces:R:3 energy=32.09925397523359 pbc="F F F"
Fe       0.00000000       0.00000000       0.00000000       0.00000000       0.00000000    -168.37268066
Fe       0.00000000       0.00000000       1.05353535       0.00000000       0.00000000     168.37268066
2
Properties=species:S:1:pos:R:3:forces:R:3 energy=22.196594590553232 pbc="F F F"
Fe       0.00000000       0.00000000       0.00000000       0.00000000       0.00000000    -159.51939392
Fe       0.00000000       0.00000000       1.11313131       0.00000000       0.00000000     159.51939392
2
Properties=species:S:1:pos:R:3:forces:R:3 energy=13.581523642161923 pbc="F F F"
Fe       0.00000000       0.00000000       0.00000000       0.00000000       0.00000000    -126.69702911
Fe       0.00000000       0.00000000       1.17272727       0.00000000       0.00000000     126.69702911
2
Properties=species:S:1:pos:R:3:forces:R:3 energy=7.196002968208881 pbc="F F F"
Fe       0.00000000       0.00000000       0.00000000       0.00000000       0.00000000     -88.56045532
Fe       0.00000000       0.00000000       1.23232323       0.00000000       0.00000000      88.56045532
2
Properties=species:S:1:pos:R:3:forces:R:3 energy=2.7984259418839965 pbc="F F F"
Fe       0.00000000       0.00000000       0.00000000       0.00000000       0.00000000     -61.26256180
Fe       0.00000000       0.00000000       1.29191919       0.00000000       0.00000000      61.26256180
2
Properties=species:S:1:pos:R:3:forces:R:3 energy=-0.3318813575366628 pbc="F F F"
Fe       0.00000000       0.00000000       0.00000000       0.00000000       0.00000000     -45.11774826
Fe       0.00000000       0.00000000       1.35151515       0.00000000       0.00000000      45.11774826
2
Properties=species:S:1:pos:R:3:forces:R:3 energy=-2.6735689185935785 pbc="F F F"
Fe       0.00000000       0.00000000       0.00000000       0.00000000       0.00000000     -33.88389587
Fe       0.00000000       0.00000000       1.41111111       0.00000000       0.00000000      33.88389587
2
Properties=species:S:1:pos:R:3:forces:R:3 energy=-4.405355152957997 pbc="F F F"
Fe       0.00000000       0.00000000       0.00000000       0.00000000       0.00000000     -24.51330757
Fe       0.00000000       0.00000000       1.47070707       0.00000000       0.00000000      24.51330757
2
Properties=species:S:1:pos:R:3:forces:R:3 energy=-5.635605460149648 pbc="F F F"
Fe       0.00000000       0.00000000       0.00000000       0.00000000       0.00000000     -17.16906357
Fe       0.00000000       0.00000000       1.53030303       0.00000000       0.00000000      17.16906357
2
Properties=species:S:1:pos:R:3:forces:R:3 energy=-6.50175419603011 pbc="F F F"
Fe       0.00000000       0.00000000       0.00000000       0.00000000       0.00000000     -12.30783939
Fe       0.00000000       0.00000000       1.58989899       0.00000000       0.00000000      12.30783939
2
Properties=species:S:1:pos:R:3:forces:R:3 energy=-7.144664687311644 pbc="F F F"
Fe       0.00000000       0.00000000       0.00000000       0.00000000       0.00000000      -9.54311848
Fe       0.00000000       0.00000000       1.64949495       0.00000000       0.00000000       9.54311848
2
Properties=species:S:1:pos:R:3:forces:R:3 energy=-7.661798205113874 pbc="F F F"
Fe       0.00000000       0.00000000       0.00000000       0.00000000       0.00000000      -7.92356539
Fe       0.00000000       0.00000000       1.70909091       0.00000000       0.00000000       7.92356539
2
Properties=species:S:1:pos:R:3:forces:R:3 energy=-8.096098588199142 pbc="F F F"
Fe       0.00000000       0.00000000       0.00000000       0.00000000       0.00000000      -6.67486048
Fe       0.00000000       0.00000000       1.76868687       0.00000000       0.00000000       6.67486048
2
Properties=species:S:1:pos:R:3:forces:R:3 energy=-8.458507300658038 pbc="F F F"
Fe       0.00000000       0.00000000       0.00000000       0.00000000       0.00000000      -5.49109793
Fe       0.00000000       0.00000000       1.82828283       0.00000000       0.00000000       5.49109793
2
Properties=species:S:1:pos:R:3:forces:R:3 energy=-8.751034744650646 pbc="F F F"
Fe       0.00000000       0.00000000       0.00000000       0.00000000       0.00000000      -4.32982349
Fe       0.00000000       0.00000000       1.88787879       0.00000000       0.00000000       4.32982349
2
Properties=species:S:1:pos:R:3:forces:R:3 energy=-8.974991236370087 pbc="F F F"
Fe       0.00000000       0.00000000       0.00000000       0.00000000       0.00000000      -3.18852186
Fe       0.00000000       0.00000000       1.94747475       0.00000000       0.00000000       3.18852186
2
Properties=species:S:1:pos:R:3:forces:R:3 energy=-9.131379270137641 pbc="F F F"
Fe       0.00000000       0.00000000       0.00000000       0.00000000       0.00000000      -2.06374049
Fe       0.00000000       0.00000000       2.00707071       0.00000000       0.00000000       2.06374049
2
Properties=species:S:1:pos:R:3:forces:R:3 energy=-9.221916043851735 pbc="F F F"
Fe       0.00000000       0.00000000       0.00000000       0.00000000       0.00000000      -0.98791450
Fe       0.00000000       0.00000000       2.06666667       0.00000000       0.00000000       0.98791450
2
Properties=species:S:1:pos:R:3:forces:R:3 energy=-9.251503186556231 pbc="F F F"
Fe       0.00000000       0.00000000       0.00000000       0.00000000       0.00000000      -0.03170963
Fe       0.00000000       0.00000000       2.12626263       0.00000000       0.00000000       0.03170963
2
Properties=species:S:1:pos:R:3:forces:R:3 energy=-9.22959156347073 pbc="F F F"
Fe       0.00000000       0.00000000       0.00000000       0.00000000       0.00000000       0.72933054
Fe       0.00000000       0.00000000       2.18585859       0.00000000       0.00000000      -0.72933054
2
Properties=species:S:1:pos:R:3:forces:R:3 energy=-9.169420282829877 pbc="F F F"
Fe       0.00000000       0.00000000       0.00000000       0.00000000       0.00000000       1.24797130
Fe       0.00000000       0.00000000       2.24545455       0.00000000       0.00000000      -1.24797130
2
Properties=species:S:1:pos:R:3:forces:R:3 energy=-9.085719334009148 pbc="F F F"
Fe       0.00000000       0.00000000       0.00000000       0.00000000       0.00000000       1.52282488
Fe       0.00000000       0.00000000       2.30505051       0.00000000       0.00000000      -1.52282488
2
Properties=species:S:1:pos:R:3:forces:R:3 energy=-8.991888434276463 pbc="F F F"
Fe       0.00000000       0.00000000       0.00000000       0.00000000       0.00000000       1.59847915
Fe       0.00000000       0.00000000       2.36464646       0.00000000       0.00000000      -1.59847915
2
Properties=species:S:1:pos:R:3:forces:R:3 energy=-8.897718857947396 pbc="F F F"
Fe       0.00000000       0.00000000       0.00000000       0.00000000       0.00000000       1.54687500
Fe       0.00000000       0.00000000       2.42424242       0.00000000       0.00000000      -1.54687500
2
Properties=species:S:1:pos:R:3:forces:R:3 energy=-8.808615738134964 pbc="F F F"
Fe       0.00000000       0.00000000       0.00000000       0.00000000       0.00000000       1.43934870
Fe       0.00000000       0.00000000       2.48383838       0.00000000       0.00000000      -1.43934870
2
Properties=species:S:1:pos:R:3:forces:R:3 energy=-8.726017601029568 pbc="F F F"
Fe       0.00000000       0.00000000       0.00000000       0.00000000       0.00000000       1.33978021
Fe       0.00000000       0.00000000       2.54343434       0.00000000       0.00000000      -1.33978021
2
Properties=species:S:1:pos:R:3:forces:R:3 energy=-8.647315242692821 pbc="F F F"
Fe       0.00000000       0.00000000       0.00000000       0.00000000       0.00000000       1.31897795
Fe       0.00000000       0.00000000       2.60303030       0.00000000       0.00000000      -1.31897795
2
Properties=species:S:1:pos:R:3:forces:R:3 energy=-8.567060572673329 pbc="F F F"
Fe       0.00000000       0.00000000       0.00000000       0.00000000       0.00000000       1.38200116
Fe       0.00000000       0.00000000       2.66262626       0.00000000       0.00000000      -1.38200116
2
Properties=species:S:1:pos:R:3:forces:R:3 energy=-8.482533657264602 pbc="F F F"
Fe       0.00000000       0.00000000       0.00000000       0.00000000       0.00000000       1.45049405
Fe       0.00000000       0.00000000       2.72222222       0.00000000       0.00000000      -1.45049405
2
Properties=species:S:1:pos:R:3:forces:R:3 energy=-8.394816474025012 pbc="F F F"
Fe       0.00000000       0.00000000       0.00000000       0.00000000       0.00000000       1.48782861
Fe       0.00000000       0.00000000       2.78181818       0.00000000       0.00000000      -1.48782861
2
Properties=species:S:1:pos:R:3:forces:R:3 energy=-8.305789225334713 pbc="F F F"
Fe       0.00000000       0.00000000       0.00000000       0.00000000       0.00000000       1.49528813
Fe       0.00000000       0.00000000       2.84141414       0.00000000       0.00000000      -1.49528813
2
Properties=species:S:1:pos:R:3:forces:R:3 energy=-8.217097263390862 pbc="F F F"
Fe       0.00000000       0.00000000       0.00000000       0.00000000       0.00000000       1.47720134
Fe       0.00000000       0.00000000       2.90101010       0.00000000       0.00000000      -1.47720134
2
Properties=species:S:1:pos:R:3:forces:R:3 energy=-8.1301510367594 pbc="F F F"
Fe       0.00000000       0.00000000       0.00000000       0.00000000       0.00000000       1.43743837
Fe       0.00000000       0.00000000       2.96060606       0.00000000       0.00000000      -1.43743837
2
Properties=species:S:1:pos:R:3:forces:R:3 energy=-8.046101349275634 pbc="F F F"
Fe       0.00000000       0.00000000       0.00000000       0.00000000       0.00000000       1.38078475
Fe       0.00000000       0.00000000       3.02020202       0.00000000       0.00000000      -1.38078475
2
Properties=species:S:1:pos:R:3:forces:R:3 energy=-7.9658122259684925 pbc="F F F"
Fe       0.00000000       0.00000000       0.00000000       0.00000000       0.00000000       1.31197095
Fe       0.00000000       0.00000000       3.07979798       0.00000000       0.00000000      -1.31197095
2
Properties=species:S:1:pos:R:3:forces:R:3 energy=-7.889900029902475 pbc="F F F"
Fe       0.00000000       0.00000000       0.00000000       0.00000000       0.00000000       1.23430943
Fe       0.00000000       0.00000000       3.13939394       0.00000000       0.00000000      -1.23430943
2
Properties=species:S:1:pos:R:3:forces:R:3 energy=-7.818832636692116 pbc="F F F"
Fe       0.00000000       0.00000000       0.00000000       0.00000000       0.00000000       1.14956379
Fe       0.00000000       0.00000000       3.19898990       0.00000000       0.00000000      -1.14956379
2
Properties=species:S:1:pos:R:3:forces:R:3 energy=-7.752998713290562 pbc="F F F"
Fe       0.00000000       0.00000000       0.00000000       0.00000000       0.00000000       1.05891228
Fe       0.00000000       0.00000000       3.25858586       0.00000000       0.00000000      -1.05891228
2
Properties=species:S:1:pos:R:3:forces:R:3 energy=-7.692704142382949 pbc="F F F"
Fe       0.00000000       0.00000000       0.00000000       0.00000000       0.00000000       0.96404994
Fe       0.00000000       0.00000000       3.31818182       0.00000000       0.00000000      -0.96404994
2
Properties=species:S:1:pos:R:3:forces:R:3 energy=-7.638121908471454 pbc="F F F"
Fe       0.00000000       0.00000000       0.00000000       0.00000000       0.00000000       0.86772418
Fe       0.00000000       0.00000000       3.37777778       0.00000000       0.00000000      -0.86772418
2
Properties=species:S:1:pos:R:3:forces:R:3 energy=-7.589234520956385 pbc="F F F"
Fe       0.00000000       0.00000000       0.00000000       0.00000000       0.00000000       0.77359968
Fe       0.00000000       0.00000000       3.43737374       0.00000000       0.00000000      -0.77359968
2
Properties=species:S:1:pos:R:3:forces:R:3 energy=-7.545791689670703 pbc="F F F"
Fe       0.00000000       0.00000000       0.00000000       0.00000000       0.00000000       0.68566179
Fe       0.00000000       0.00000000       3.49696970       0.00000000       0.00000000      -0.68566179
2
Properties=species:S:1:pos:R:3:forces:R:3 energy=-7.507314762134266 pbc="F F F"
Fe       0.00000000       0.00000000       0.00000000       0.00000000       0.00000000       0.60745633
Fe       0.00000000       0.00000000       3.55656566       0.00000000       0.00000000      -0.60745633
2
Properties=species:S:1:pos:R:3:forces:R:3 energy=-7.473144457954798 pbc="F F F"
Fe       0.00000000       0.00000000       0.00000000       0.00000000       0.00000000       0.54145819
Fe       0.00000000       0.00000000       3.61616162       0.00000000       0.00000000      -0.54145819
2
Properties=species:S:1:pos:R:3:forces:R:3 energy=-7.44251341776803 pbc="F F F"
Fe       0.00000000       0.00000000       0.00000000       0.00000000       0.00000000       0.48871213
Fe       0.00000000       0.00000000       3.67575758       0.00000000       0.00000000      -0.48871213
2
Properties=species:S:1:pos:R:3:forces:R:3 energy=-7.4146373614982855 pbc="F F F"
Fe       0.00000000       0.00000000       0.00000000       0.00000000       0.00000000       0.44883385
Fe       0.00000000       0.00000000       3.73535354       0.00000000       0.00000000      -0.44883385
2
Properties=species:S:1:pos:R:3:forces:R:3 energy=-7.38879045397206 pbc="F F F"
Fe       0.00000000       0.00000000       0.00000000       0.00000000       0.00000000       0.42028186
Fe       0.00000000       0.00000000       3.79494949       0.00000000       0.00000000      -0.42028186
2
Properties=species:S:1:pos:R:3:forces:R:3 energy=-7.364363046563672 pbc="F F F"
Fe       0.00000000       0.00000000       0.00000000       0.00000000       0.00000000       0.40077797
Fe       0.00000000       0.00000000       3.85454545       0.00000000       0.00000000      -0.40077797
2
Properties=species:S:1:pos:R:3:forces:R:3 energy=-7.340892226451605 pbc="F F F"
Fe       0.00000000       0.00000000       0.00000000       0.00000000       0.00000000       0.38774800
Fe       0.00000000       0.00000000       3.91414141       0.00000000       0.00000000      -0.38774800
2
Properties=species:S:1:pos:R:3:forces:R:3 energy=-7.31806844798922 pbc="F F F"
Fe       0.00000000       0.00000000       0.00000000       0.00000000       0.00000000       0.37865302
Fe       0.00000000       0.00000000       3.97373737       0.00000000       0.00000000      -0.37865302
2
Properties=species:S:1:pos:R:3:forces:R:3 energy=-7.295727865296351 pbc="F F F"
Fe       0.00000000       0.00000000       0.00000000       0.00000000       0.00000000       0.37119952
Fe       0.00000000       0.00000000       4.03333333       0.00000000       0.00000000      -0.37119952
2
Properties=species:S:1:pos:R:3:forces:R:3 energy=-7.273831313410485 pbc="F F F"
Fe       0.00000000       0.00000000       0.00000000       0.00000000       0.00000000       0.36344120
Fe       0.00000000       0.00000000       4.09292929       0.00000000       0.00000000      -0.36344120
2
Properties=species:S:1:pos:R:3:forces:R:3 energy=-7.252445146101406 pbc="F F F"
Fe       0.00000000       0.00000000       0.00000000       0.00000000       0.00000000       0.35383031
Fe       0.00000000       0.00000000       4.15252525       0.00000000       0.00000000      -0.35383031
2
Properties=species:S:1:pos:R:3:forces:R:3 energy=-7.231716765120673 pbc="F F F"
Fe       0.00000000       0.00000000       0.00000000       0.00000000       0.00000000       0.34125951
Fe       0.00000000       0.00000000       4.21212121       0.00000000       0.00000000      -0.34125951
2
Properties=species:S:1:pos:R:3:forces:R:3 energy=-7.211841648745608 pbc="F F F"
Fe       0.00000000       0.00000000       0.00000000       0.00000000       0.00000000       0.32509568
Fe       0.00000000       0.00000000       4.27171717       0.00000000       0.00000000      -0.32509568
2
Properties=species:S:1:pos:R:3:forces:R:3 energy=-7.193042187210655 pbc="F F F"
Fe       0.00000000       0.00000000       0.00000000       0.00000000       0.00000000       0.30519915
Fe       0.00000000       0.00000000       4.33131313       0.00000000       0.00000000      -0.30519915
2
Properties=species:S:1:pos:R:3:forces:R:3 energy=-7.175532734210656 pbc="F F F"
Fe       0.00000000       0.00000000       0.00000000       0.00000000       0.00000000       0.28188911
Fe       0.00000000       0.00000000       4.39090909       0.00000000       0.00000000      -0.28188911
2
Properties=species:S:1:pos:R:3:forces:R:3 energy=-7.15949708151282 pbc="F F F"
Fe       0.00000000       0.00000000       0.00000000       0.00000000       0.00000000       0.25586444
Fe       0.00000000       0.00000000       4.45050505       0.00000000       0.00000000      -0.25586444
2
Properties=species:S:1:pos:R:3:forces:R:3 energy=-7.145070644919466 pbc="F F F"
Fe       0.00000000       0.00000000       0.00000000       0.00000000       0.00000000       0.22807325
Fe       0.00000000       0.00000000       4.51010101       0.00000000       0.00000000      -0.22807325
2
Properties=species:S:1:pos:R:3:forces:R:3 energy=-7.132326445921118 pbc="F F F"
Fe       0.00000000       0.00000000       0.00000000       0.00000000       0.00000000       0.19957229
Fe       0.00000000       0.00000000       4.56969697       0.00000000       0.00000000      -0.19957229
2
Properties=species:S:1:pos:R:3:forces:R:3 energy=-7.12127657388619 pbc="F F F"
Fe       0.00000000       0.00000000       0.00000000       0.00000000       0.00000000       0.17141196
Fe       0.00000000       0.00000000       4.62929293       0.00000000       0.00000000      -0.17141196
2
Properties=species:S:1:pos:R:3:forces:R:3 energy=-7.111870063300454 pbc="F F F"
Fe       0.00000000       0.00000000       0.00000000       0.00000000       0.00000000       0.14456218
Fe       0.00000000       0.00000000       4.68888889       0.00000000       0.00000000      -0.14456218
2
Properties=species:S:1:pos:R:3:forces:R:3 energy=-7.104002913683005 pbc="F F F"
Fe       0.00000000       0.00000000       0.00000000       0.00000000       0.00000000       0.11986837
Fe       0.00000000       0.00000000       4.74848485       0.00000000       0.00000000      -0.11986837
2
Properties=species:S:1:pos:R:3:forces:R:3 energy=-7.097525547918395 pbc="F F F"
Fe       0.00000000       0.00000000       0.00000000       0.00000000       0.00000000       0.09802414
Fe       0.00000000       0.00000000       4.80808081       0.00000000       0.00000000      -0.09802414
2
Properties=species:S:1:pos:R:3:forces:R:3 energy=-7.092253000067172 pbc="F F F"
Fe       0.00000000       0.00000000       0.00000000       0.00000000       0.00000000       0.07951022
Fe       0.00000000       0.00000000       4.86767677       0.00000000       0.00000000      -0.07951022
2
Properties=species:S:1:pos:R:3:forces:R:3 energy=-7.087978578916722 pbc="F F F"
Fe       0.00000000       0.00000000       0.00000000       0.00000000       0.00000000       0.06451724
Fe       0.00000000       0.00000000       4.92727273       0.00000000       0.00000000      -0.06451724
2
Properties=species:S:1:pos:R:3:forces:R:3 energy=-7.08449587535045 pbc="F F F"
Fe       0.00000000       0.00000000       0.00000000       0.00000000       0.00000000       0.05288413
Fe       0.00000000       0.00000000       4.98686869       0.00000000       0.00000000      -0.05288413
2
Properties=species:S:1:pos:R:3:forces:R:3 energy=-7.081617412849929 pbc="F F F"
Fe       0.00000000       0.00000000       0.00000000       0.00000000       0.00000000       0.04416525
Fe       0.00000000       0.00000000       5.04646465       0.00000000       0.00000000      -0.04416525
2
Properties=species:S:1:pos:R:3:forces:R:3 energy=-7.079182726800099 pbc="F F F"
Fe       0.00000000       0.00000000       0.00000000       0.00000000       0.00000000       0.03793450
Fe       0.00000000       0.00000000       5.10606061       0.00000000       0.00000000      -0.03793450
2
Properties=species:S:1:pos:R:3:forces:R:3 energy=-7.077045146097372 pbc="F F F"
Fe       0.00000000       0.00000000       0.00000000       0.00000000       0.00000000       0.03426716
Fe       0.00000000       0.00000000       5.16565657       0.00000000       0.00000000      -0.03426716
2
Properties=species:S:1:pos:R:3:forces:R:3 energy=-7.075033178843278 pbc="F F F"
Fe       0.00000000       0.00000000       0.00000000       0.00000000       0.00000000       0.03386356
Fe       0.00000000       0.00000000       5.22525253       0.00000000       0.00000000      -0.03386356
2
Properties=species:S:1:pos:R:3:forces:R:3 energy=-7.072935302656653 pbc="F F F"
Fe       0.00000000       0.00000000       0.00000000       0.00000000       0.00000000       0.03710034
Fe       0.00000000       0.00000000       5.28484848       0.00000000       0.00000000      -0.03710034
2
Properties=species:S:1:pos:R:3:forces:R:3 energy=-7.0705644453959415 pbc="F F F"
Fe       0.00000000       0.00000000       0.00000000       0.00000000       0.00000000       0.04264606
Fe       0.00000000       0.00000000       5.34444444       0.00000000       0.00000000      -0.04264606
2
Properties=species:S:1:pos:R:3:forces:R:3 energy=-7.06785670312224 pbc="F F F"
Fe       0.00000000       0.00000000       0.00000000       0.00000000       0.00000000       0.04801655
Fe       0.00000000       0.00000000       5.40404040       0.00000000       0.00000000      -0.04801655
2
Properties=species:S:1:pos:R:3:forces:R:3 energy=-7.064877146092478 pbc="F F F"
Fe       0.00000000       0.00000000       0.00000000       0.00000000       0.00000000       0.05159210
Fe       0.00000000       0.00000000       5.46363636       0.00000000       0.00000000      -0.05159210
2
Properties=species:S:1:pos:R:3:forces:R:3 energy=-7.0617549942484805 pbc="F F F"
Fe       0.00000000       0.00000000       0.00000000       0.00000000       0.00000000       0.05281193
Fe       0.00000000       0.00000000       5.52323232       0.00000000       0.00000000      -0.05281193
2
Properties=species:S:1:pos:R:3:forces:R:3 energy=-7.05864221870736 pbc="F F F"
Fe       0.00000000       0.00000000       0.00000000       0.00000000       0.00000000       0.05103204
Fe       0.00000000       0.00000000       5.58282828       0.00000000       0.00000000      -0.05103204
2
Properties=species:S:1:pos:R:3:forces:R:3 energy=-7.055756920479665 pbc="F F F"
Fe       0.00000000       0.00000000       0.00000000       0.00000000       0.00000000       0.04502911
Fe       0.00000000       0.00000000       5.64242424       0.00000000       0.00000000      -0.04502911
2
Properties=species:S:1:pos:R:3:forces:R:3 energy=-7.0533619646641075 pbc="F F F"
Fe       0.00000000       0.00000000       0.00000000       0.00000000       0.00000000       0.03474704
Fe       0.00000000       0.00000000       5.70202020       0.00000000       0.00000000      -0.03474704
2
Properties=species:S:1:pos:R:3:forces:R:3 energy=-7.051637192048939 pbc="F F F"
Fe       0.00000000       0.00000000       0.00000000       0.00000000       0.00000000       0.02339555
Fe       0.00000000       0.00000000       5.76161616       0.00000000       0.00000000      -0.02339555
2
Properties=species:S:1:pos:R:3:forces:R:3 energy=-7.0505111122261725 pbc="F F F"
Fe       0.00000000       0.00000000       0.00000000       0.00000000       0.00000000       0.01509661
Fe       0.00000000       0.00000000       5.82121212       0.00000000       0.00000000      -0.01509661
2
Properties=species:S:1:pos:R:3:forces:R:3 energy=-7.049754416735611 pbc="F F F"
Fe       0.00000000       0.00000000       0.00000000       0.00000000       0.00000000       0.01090461
Fe       0.00000000       0.00000000       5.88080808       0.00000000       0.00000000      -0.01090461
2
Properties=species:S:1:pos:R:3:forces:R:3 energy=-7.049163552659245 pbc="F F F"
Fe       0.00000000       0.00000000       0.00000000       0.00000000       0.00000000       0.00916091
Fe       0.00000000       0.00000000       5.94040404       0.00000000       0.00000000      -0.00916091
2
Properties=species:S:1:pos:R:3:forces:R:3 energy=-7.048644203178025 pbc="F F F"
Fe       0.00000000       0.00000000       0.00000000       0.00000000       0.00000000       0.00836448
Fe       0.00000000       0.00000000       6.00000000       0.00000000       0.00000000      -0.00836448
