2
Properties=species:S:1:pos:R:3:forces:R:3 energy=181.90978634207465 pbc="F F F"
He       0.00000000       0.00000000       0.00000000       0.00000000       0.00000000   -3136.45068359
He       0.00000000       0.00000000       0.10000000       0.00000000       0.00000000    3136.45068359
2
Properties=species:S:1:pos:R:3:forces:R:3 energy=75.13783657400826 pbc="F F F"
He       0.00000000       0.00000000       0.00000000       0.00000000       0.00000000    -990.39630127
He       0.00000000       0.00000000       0.15959596       0.00000000       0.00000000     990.39630127
2
Properties=species:S:1:pos:R:3:forces:R:3 energy=35.75207149852265 pbc="F F F"
He       0.00000000       0.00000000       0.00000000       0.00000000       0.00000000    -431.40579224
He       0.00000000       0.00000000       0.21919192       0.00000000       0.00000000     431.40579224
2
Properties=species:S:1:pos:R:3:forces:R:3 energy=17.271028637178144 pbc="F F F"
He       0.00000000       0.00000000       0.00000000       0.00000000       0.00000000    -217.56413269
He       0.00000000       0.00000000       0.27878788       0.00000000       0.00000000     217.56413269
2
Properties=species:S:1:pos:R:3:forces:R:3 energy=7.721908213178044 pbc="F F F"
He       0.00000000       0.00000000       0.00000000       0.00000000       0.00000000    -113.64724731
He       0.00000000       0.00000000       0.33838384       0.00000000       0.00000000     113.64724731
2
Properties=species:S:1:pos:R:3:forces:R:3 energy=2.849923497996658 pbc="F F F"
He       0.00000000       0.00000000       0.00000000       0.00000000       0.00000000     -55.00091934
He       0.00000000       0.00000000       0.39797980       0.00000000       0.00000000      55.00091934
2
Properties=species:S:1:pos:R:3:forces:R:3 energy=0.6900733877476464 pbc="F F F"
He       0.00000000       0.00000000       0.00000000       0.00000000       0.00000000     -20.71454620
He       0.00000000       0.00000000       0.45757576       0.00000000       0.00000000      20.71454620
2
Properties=species:S:1:pos:R:3:forces:R:3 energy=0.04488797098806503 pbc="F F F"
He       0.00000000       0.00000000       0.00000000       0.00000000       0.00000000      -3.47618175
He       0.00000000       0.00000000       0.51717172       0.00000000       0.00000000       3.47618175
2
Properties=species:S:1:pos:R:3:forces:R:3 energy=-0.0040481589113467095 pbc="F F F"
He       0.00000000       0.00000000       0.00000000       0.00000000       0.00000000       0.01128428
He       0.00000000       0.00000000       0.57676768       0.00000000       0.00000000      -0.01128428
2
Properties=species:S:1:pos:R:3:forces:R:3 energy=-0.0030897149408904622 pbc="F F F"
He       0.00000000       0.00000000       0.00000000       0.00000000       0.00000000       0.02095834
He       0.00000000       0.00000000       0.63636364       0.00000000       0.00000000      -0.02095834
2
Properties=species:S:1:pos:R:3:forces:R:3 energy=-0.0016304764086791921 pbc="F F F"
He       0.00000000       0.00000000       0.00000000       0.00000000       0.00000000       0.02668906
He       0.00000000       0.00000000       0.69595960       0.00000000       0.00000000      -0.02668906
2
Properties=species:S:1:pos:R:3:forces:R:3 energy=-6.990392263624612e-05 pbc="F F F"
He       0.00000000       0.00000000       0.00000000       0.00000000       0.00000000       0.02461298
He       0.00000000       0.00000000       0.75555556       0.00000000       0.00000000      -0.02461298
2
Properties=species:S:1:pos:R:3:forces:R:3 energy=0.001221668320470105 pbc="F F F"
He       0.00000000       0.00000000       0.00000000       0.00000000       0.00000000       0.01838370
He       0.00000000       0.00000000       0.81515152       0.00000000       0.00000000      -0.01838370
2
Properties=species:S:1:pos:R:3:forces:R:3 energy=0.002109935752169892 pbc="F F F"
He       0.00000000       0.00000000       0.00000000       0.00000000       0.00000000       0.01152942
He       0.00000000       0.00000000       0.87474747       0.00000000       0.00000000      -0.01152942
2
Properties=species:S:1:pos:R:3:forces:R:3 energy=0.002621729899976216 pbc="F F F"
He       0.00000000       0.00000000       0.00000000       0.00000000       0.00000000       0.00592189
He       0.00000000       0.00000000       0.93434343       0.00000000       0.00000000      -0.00592189
2
Properties=species:S:1:pos:R:3:forces:R:3 energy=0.002848532035823903 pbc="F F F"
He       0.00000000       0.00000000       0.00000000       0.00000000       0.00000000       0.00194062
He       0.00000000       0.00000000       0.99393939       0.00000000       0.00000000      -0.00194062
2
Properties=species:S:1:pos:R:3:forces:R:3 energy=0.002878604818985153 pbc="F F F"
He       0.00000000       0.00000000       0.00000000       0.00000000       0.00000000      -0.00075357
He       0.00000000       0.00000000       1.05353535       0.00000000       0.00000000       0.00075357
2
Properties=species:S:1:pos:R:3:forces:R:3 energy=0.0027761452176109183 pbc="F F F"
He       0.00000000       0.00000000       0.00000000       0.00000000       0.00000000      -0.00256559
He       0.00000000       0.00000000       1.11313131       0.00000000       0.00000000       0.00256559
2
Properties=species:S:1:pos:R:3:forces:R:3 energy=0.002584540383140833 pbc="F F F"
He       0.00000000       0.00000000       0.00000000       0.00000000       0.00000000      -0.00378363
He       0.00000000       0.00000000       1.17272727       0.00000000       0.00000000       0.00378363
2
Properties=species:S:1:pos:R:3:forces:R:3 energy=0.00233324205745903 pbc="F F F"
He       0.00000000       0.00000000       0.00000000       0.00000000       0.00000000      -0.00459312
He       0.00000000       0.00000000       1.23232323       0.00000000       0.00000000       0.00459312
2
Properties=species:S:1:pos:R:3:forces:R:3 energy=0.0020427848359094933 pbc="F F F"
He       0.00000000       0.00000000       0.00000000       0.00000000       0.00000000      -0.00511392
He       0.00000000       0.00000000       1.29191919       0.00000000       0.00000000       0.00511392
2
Properties=species:S:1:pos:R:3:forces:R:3 energy=0.0017278368023219833 pbc="F F F"
He       0.00000000       0.00000000       0.00000000       0.00000000       0.00000000      -0.00542582
He       0.00000000       0.00000000       1.35151515       0.00000000       0.00000000       0.00542582
2
Properties=species:S:1:pos:R:3:forces:R:3 energy=0.0013991402714213317 pbc="F F F"
He       0.00000000       0.00000000       0.00000000       0.00000000       0.00000000      -0.00558283
He       0.00000000       0.00000000       1.41111111       0.00000000       0.00000000       0.00558283
2
Properties=species:S:1:pos:R:3:forces:R:3 energy=0.0010647508382986138 pbc="F F F"
He       0.00000000       0.00000000       0.00000000       0.00000000       0.00000000      -0.00562170
He       0.00000000       0.00000000       1.47070707       0.00000000       0.00000000       0.00562170
2
Properties=species:S:1:pos:R:3:forces:R:3 energy=0.0007309264596448203 pbc="F F F"
He       0.00000000       0.00000000       0.00000000       0.00000000       0.00000000      -0.00556720
He       0.00000000       0.00000000       1.53030303       0.00000000       0.00000000       0.00556720
2
Properties=species:S:1:pos:R:3:forces:R:3 energy=0.0004027064394089416 pbc="F F F"
He       0.00000000       0.00000000       0.00000000       0.00000000       0.00000000      -0.00543608
He       0.00000000       0.00000000       1.58989899       0.00000000       0.00000000       0.00543608
2
Properties=species:S:1:pos:R:3:forces:R:3 energy=8.42737591829248e-05 pbc="F F F"
He       0.00000000       0.00000000       0.00000000       0.00000000       0.00000000      -0.00523999
He       0.00000000       0.00000000       1.64949495       0.00000000       0.00000000       0.00523999
2
Properties=species:S:1:pos:R:3:forces:R:3 energy=-0.00022074447127357045 pbc="F F F"
He       0.00000000       0.00000000       0.00000000       0.00000000       0.00000000      -0.00498735
He       0.00000000       0.00000000       1.70909091       0.00000000       0.00000000       0.00498735
2
Properties=species:S:1:pos:R:3:forces:R:3 energy=-0.0005091898150830312 pbc="F F F"
He       0.00000000       0.00000000       0.00000000       0.00000000       0.00000000      -0.00468496
He       0.00000000       0.00000000       1.76868687       0.00000000       0.00000000       0.00468496
2
Properties=species:S:1:pos:R:3:forces:R:3 energy=-0.0007782727934102943 pbc="F F F"
He       0.00000000       0.00000000       0.00000000       0.00000000       0.00000000      -0.00433875
He       0.00000000       0.00000000       1.82828283       0.00000000       0.00000000       0.00433875
2
Properties=species:S:1:pos:R:3:forces:R:3 energy=-0.0010255684815863126 pbc="F F F"
He       0.00000000       0.00000000       0.00000000       0.00000000       0.00000000      -0.00395435
He       0.00000000       0.00000000       1.88787879       0.00000000       0.00000000       0.00395435
2
Properties=species:S:1:pos:R:3:forces:R:3 energy=-0.0012489630531804625 pbc="F F F"
He       0.00000000       0.00000000       0.00000000       0.00000000       0.00000000      -0.00353735
He       0.00000000       0.00000000       1.94747475       0.00000000       0.00000000       0.00353735
2
Properties=species:S:1:pos:R:3:forces:R:3 energy=-0.0014466608553377381 pbc="F F F"
He       0.00000000       0.00000000       0.00000000       0.00000000       0.00000000      -0.00309341
He       0.00000000       0.00000000       2.00707071       0.00000000       0.00000000       0.00309341
2
Properties=species:S:1:pos:R:3:forces:R:3 energy=-0.0016172339931292915 pbc="F F F"
He       0.00000000       0.00000000       0.00000000       0.00000000       0.00000000      -0.00262829
He       0.00000000       0.00000000       2.06666667       0.00000000       0.00000000       0.00262829
2
Properties=species:S:1:pos:R:3:forces:R:3 energy=-0.0017596277117508095 pbc="F F F"
He       0.00000000       0.00000000       0.00000000       0.00000000       0.00000000      -0.00214791
He       0.00000000       0.00000000       2.12626263       0.00000000       0.00000000       0.00214791
2
Properties=species:S:1:pos:R:3:forces:R:3 energy=-0.0018730766687370536 pbc="F F F"
He       0.00000000       0.00000000       0.00000000       0.00000000       0.00000000      -0.00165824
He       0.00000000       0.00000000       2.18585859       0.00000000       0.00000000       0.00165824
2
Properties=species:S:1:pos:R:3:forces:R:3 energy=-0.001957214833339151 pbc="F F F"
He       0.00000000       0.00000000       0.00000000       0.00000000       0.00000000      -0.00116538
He       0.00000000       0.00000000       2.24545455       0.00000000       0.00000000       0.00116538
2
Properties=species:S:1:pos:R:3:forces:R:3 energy=-0.002012043203249709 pbc="F F F"
He       0.00000000       0.00000000       0.00000000       0.00000000       0.00000000      -0.00067544
He       0.00000000       0.00000000       2.30505051       0.00000000       0.00000000       0.00067544
2
Properties=species:S:1:pos:R:3:forces:R:3 energy=-0.002037896593879451 pbc="F F F"
He       0.00000000       0.00000000       0.00000000       0.00000000       0.00000000      -0.00019455
He       0.00000000       0.00000000       2.36464646       0.00000000       0.00000000       0.00019455
2
Properties=species:S:1:pos:R:3:forces:R:3 energy=-0.00203552704094456 pbc="F F F"
He       0.00000000       0.00000000       0.00000000       0.00000000       0.00000000       0.00027126
He       0.00000000       0.00000000       2.42424242       0.00000000       0.00000000      -0.00027126
2
Properties=species:S:1:pos:R:3:forces:R:3 energy=-0.0020059894933390594 pbc="F F F"
He       0.00000000       0.00000000       0.00000000       0.00000000       0.00000000       0.00071605
He       0.00000000       0.00000000       2.48383838       0.00000000       0.00000000      -0.00071605
2
Properties=species:S:1:pos:R:3:forces:R:3 energy=-0.0019507076748960456 pbc="F F F"
He       0.00000000       0.00000000       0.00000000       0.00000000       0.00000000       0.00113409
He       0.00000000       0.00000000       2.54343434       0.00000000       0.00000000      -0.00113409
2
Properties=species:S:1:pos:R:3:forces:R:3 energy=-0.001871452854769776 pbc="F F F"
He       0.00000000       0.00000000       0.00000000       0.00000000       0.00000000       0.00151990
He       0.00000000       0.00000000       2.60303030       0.00000000       0.00000000      -0.00151990
2
Properties=species:S:1:pos:R:3:forces:R:3 energy=-0.001770300623898491 pbc="F F F"
He       0.00000000       0.00000000       0.00000000       0.00000000       0.00000000       0.00186837
He       0.00000000       0.00000000       2.66262626       0.00000000       0.00000000      -0.00186837
2
Properties=species:S:1:pos:R:3:forces:R:3 energy=-0.0016495961230539257 pbc="F F F"
He       0.00000000       0.00000000       0.00000000       0.00000000       0.00000000       0.00217475
He       0.00000000       0.00000000       2.72222222       0.00000000       0.00000000      -0.00217475
2
Properties=species:S:1:pos:R:3:forces:R:3 energy=-0.0015120072095338622 pbc="F F F"
He       0.00000000       0.00000000       0.00000000       0.00000000       0.00000000       0.00243494
He       0.00000000       0.00000000       2.78181818       0.00000000       0.00000000      -0.00243494
2
Properties=species:S:1:pos:R:3:forces:R:3 energy=-0.0013603628295699606 pbc="F F F"
He       0.00000000       0.00000000       0.00000000       0.00000000       0.00000000       0.00264549
He       0.00000000       0.00000000       2.84141414       0.00000000       0.00000000      -0.00264549
2
Properties=species:S:1:pos:R:3:forces:R:3 energy=-0.001197707721371209 pbc="F F F"
He       0.00000000       0.00000000       0.00000000       0.00000000       0.00000000       0.00280403
He       0.00000000       0.00000000       2.90101010       0.00000000       0.00000000      -0.00280403
2
Properties=species:S:1:pos:R:3:forces:R:3 energy=-0.0010272041523085892 pbc="F F F"
He       0.00000000       0.00000000       0.00000000       0.00000000       0.00000000       0.00290933
He       0.00000000       0.00000000       2.96060606       0.00000000       0.00000000      -0.00290933
2
Properties=species:S:1:pos:R:3:forces:R:3 energy=-0.0008520019797902261 pbc="F F F"
He       0.00000000       0.00000000       0.00000000       0.00000000       0.00000000       0.00296151
He       0.00000000       0.00000000       3.02020202       0.00000000       0.00000000      -0.00296151
2
Properties=species:S:1:pos:R:3:forces:R:3 energy=-0.0006752299143136514 pbc="F F F"
He       0.00000000       0.00000000       0.00000000       0.00000000       0.00000000       0.00296227
He       0.00000000       0.00000000       3.07979798       0.00000000       0.00000000      -0.00296227
2
Properties=species:S:1:pos:R:3:forces:R:3 energy=-0.0004998749308935751 pbc="F F F"
He       0.00000000       0.00000000       0.00000000       0.00000000       0.00000000       0.00291485
He       0.00000000       0.00000000       3.13939394       0.00000000       0.00000000      -0.00291485
2
Properties=species:S:1:pos:R:3:forces:R:3 energy=-0.00032866857277373 pbc="F F F"
He       0.00000000       0.00000000       0.00000000       0.00000000       0.00000000       0.00282409
He       0.00000000       0.00000000       3.19898990       0.00000000       0.00000000      -0.00282409
2
Properties=species:S:1:pos:R:3:forces:R:3 energy=-0.00016400666246198952 pbc="F F F"
He       0.00000000       0.00000000       0.00000000       0.00000000       0.00000000       0.00269619
He       0.00000000       0.00000000       3.25858586       0.00000000       0.00000000      -0.00269619
2
Properties=species:S:1:pos:R:3:forces:R:3 energy=-7.895534163888094e-06 pbc="F F F"
He       0.00000000       0.00000000       0.00000000       0.00000000       0.00000000       0.00253856
He       0.00000000       0.00000000       3.31818182       0.00000000       0.00000000      -0.00253856
2
Properties=species:S:1:pos:R:3:forces:R:3 energy=0.00013814041934083628 pbc="F F F"
He       0.00000000       0.00000000       0.00000000       0.00000000       0.00000000       0.00235947
He       0.00000000       0.00000000       3.37777778       0.00000000       0.00000000      -0.00235947
2
Properties=species:S:1:pos:R:3:forces:R:3 energy=0.0002730765576944137 pbc="F F F"
He       0.00000000       0.00000000       0.00000000       0.00000000       0.00000000       0.00216759
He       0.00000000       0.00000000       3.43737374       0.00000000       0.00000000      -0.00216759
2
Properties=species:S:1:pos:R:3:forces:R:3 energy=0.0003964222082842908 pbc="F F F"
He       0.00000000       0.00000000       0.00000000       0.00000000       0.00000000       0.00197162
He       0.00000000       0.00000000       3.49696970       0.00000000       0.00000000      -0.00197162
2
Properties=species:S:1:pos:R:3:forces:R:3 energy=0.0005081635708932527 pbc="F F F"
He       0.00000000       0.00000000       0.00000000       0.00000000       0.00000000       0.00177971
He       0.00000000       0.00000000       3.55656566       0.00000000       0.00000000      -0.00177971
2
Properties=species:S:1:pos:R:3:forces:R:3 energy=0.0006087718423036434 pbc="F F F"
He       0.00000000       0.00000000       0.00000000       0.00000000       0.00000000       0.00159903
He       0.00000000       0.00000000       3.61616162       0.00000000       0.00000000      -0.00159903
2
Properties=species:S:1:pos:R:3:forces:R:3 energy=0.0006990901369275814 pbc="F F F"
He       0.00000000       0.00000000       0.00000000       0.00000000       0.00000000       0.00143521
He       0.00000000       0.00000000       3.67575758       0.00000000       0.00000000      -0.00143521
2
Properties=species:S:1:pos:R:3:forces:R:3 energy=0.0007802465450281553 pbc="F F F"
He       0.00000000       0.00000000       0.00000000       0.00000000       0.00000000       0.00129198
He       0.00000000       0.00000000       3.73535354       0.00000000       0.00000000      -0.00129198
2
Properties=species:S:1:pos:R:3:forces:R:3 energy=0.0008535267332965302 pbc="F F F"
He       0.00000000       0.00000000       0.00000000       0.00000000       0.00000000       0.00117094
He       0.00000000       0.00000000       3.79494949       0.00000000       0.00000000      -0.00117094
2
Properties=species:S:1:pos:R:3:forces:R:3 energy=0.000920247635336442 pbc="F F F"
He       0.00000000       0.00000000       0.00000000       0.00000000       0.00000000       0.00107159
He       0.00000000       0.00000000       3.85454545       0.00000000       0.00000000      -0.00107159
2
Properties=species:S:1:pos:R:3:forces:R:3 energy=0.0009816373505962947 pbc="F F F"
He       0.00000000       0.00000000       0.00000000       0.00000000       0.00000000       0.00099164
He       0.00000000       0.00000000       3.91414141       0.00000000       0.00000000      -0.00099164
2
Properties=species:S:1:pos:R:3:forces:R:3 energy=0.0010387572424727124 pbc="F F F"
He       0.00000000       0.00000000       0.00000000       0.00000000       0.00000000       0.00092756
He       0.00000000       0.00000000       3.97373737       0.00000000       0.00000000      -0.00092756
2
Properties=species:S:1:pos:R:3:forces:R:3 energy=0.0010924302132696185 pbc="F F F"
He       0.00000000       0.00000000       0.00000000       0.00000000       0.00000000       0.00087528
He       0.00000000       0.00000000       4.03333333       0.00000000       0.00000000      -0.00087528
2
Properties=species:S:1:pos:R:3:forces:R:3 energy=0.0011432382480706937 pbc="F F F"
He       0.00000000       0.00000000       0.00000000       0.00000000       0.00000000       0.00083078
He       0.00000000       0.00000000       4.09292929       0.00000000       0.00000000      -0.00083078
2
Properties=species:S:1:pos:R:3:forces:R:3 energy=0.0011915366532189234 pbc="F F F"
He       0.00000000       0.00000000       0.00000000       0.00000000       0.00000000       0.00079049
He       0.00000000       0.00000000       4.15252525       0.00000000       0.00000000      -0.00079049
2
Properties=species:S:1:pos:R:3:forces:R:3 energy=0.0012374841859017565 pbc="F F F"
He       0.00000000       0.00000000       0.00000000       0.00000000       0.00000000       0.00075154
He       0.00000000       0.00000000       4.21212121       0.00000000       0.00000000      -0.00075154
2
Properties=species:S:1:pos:R:3:forces:R:3 energy=0.001281094083950401 pbc="F F F"
He       0.00000000       0.00000000       0.00000000       0.00000000       0.00000000       0.00071164
He       0.00000000       0.00000000       4.27171717       0.00000000       0.00000000      -0.00071164
2
Properties=species:S:1:pos:R:3:forces:R:3 energy=0.0013222516523654115 pbc="F F F"
He       0.00000000       0.00000000       0.00000000       0.00000000       0.00000000       0.00066902
He       0.00000000       0.00000000       4.33131313       0.00000000       0.00000000      -0.00066902
2
Properties=species:S:1:pos:R:3:forces:R:3 energy=0.001360755107673771 pbc="F F F"
He       0.00000000       0.00000000       0.00000000       0.00000000       0.00000000       0.00062233
He       0.00000000       0.00000000       4.39090909       0.00000000       0.00000000      -0.00062233
2
Properties=species:S:1:pos:R:3:forces:R:3 energy=0.0013963295500486663 pbc="F F F"
He       0.00000000       0.00000000       0.00000000       0.00000000       0.00000000       0.00057063
He       0.00000000       0.00000000       4.45050505       0.00000000       0.00000000      -0.00057063
2
Properties=species:S:1:pos:R:3:forces:R:3 energy=0.0014286644664639966 pbc="F F F"
He       0.00000000       0.00000000       0.00000000       0.00000000       0.00000000       0.00051368
He       0.00000000       0.00000000       4.51010101       0.00000000       0.00000000      -0.00051368
2
Properties=species:S:1:pos:R:3:forces:R:3 energy=0.0014574666221702929 pbc="F F F"
He       0.00000000       0.00000000       0.00000000       0.00000000       0.00000000       0.00045229
He       0.00000000       0.00000000       4.56969697       0.00000000       0.00000000      -0.00045229
2
Properties=species:S:1:pos:R:3:forces:R:3 energy=0.0014825305543202114 pbc="F F F"
He       0.00000000       0.00000000       0.00000000       0.00000000       0.00000000       0.00038878
He       0.00000000       0.00000000       4.62929293       0.00000000       0.00000000      -0.00038878
2
Properties=species:S:1:pos:R:3:forces:R:3 energy=0.0015038459283941887 pbc="F F F"
He       0.00000000       0.00000000       0.00000000       0.00000000       0.00000000       0.00032735
He       0.00000000       0.00000000       4.68888889       0.00000000       0.00000000      -0.00032735
2
Properties=species:S:1:pos:R:3:forces:R:3 energy=0.0015217037449562856 pbc="F F F"
He       0.00000000       0.00000000       0.00000000       0.00000000       0.00000000       0.00027379
He       0.00000000       0.00000000       4.74848485       0.00000000       0.00000000      -0.00027379
2
Properties=species:S:1:pos:R:3:forces:R:3 energy=0.001536762912453709 pbc="F F F"
He       0.00000000       0.00000000       0.00000000       0.00000000       0.00000000       0.00023446
He       0.00000000       0.00000000       4.80808081       0.00000000       0.00000000      -0.00023446
2
Properties=species:S:1:pos:R:3:forces:R:3 energy=0.0015500340198958537 pbc="F F F"
He       0.00000000       0.00000000       0.00000000       0.00000000       0.00000000       0.00021433
He       0.00000000       0.00000000       4.86767677       0.00000000       0.00000000      -0.00021433
2
Properties=species:S:1:pos:R:3:forces:R:3 energy=0.0015627136723205051 pbc="F F F"
He       0.00000000       0.00000000       0.00000000       0.00000000       0.00000000       0.00021432
He       0.00000000       0.00000000       4.92727273       0.00000000       0.00000000      -0.00021432
2
Properties=species:S:1:pos:R:3:forces:R:3 energy=0.0015758799320316399 pbc="F F F"
He       0.00000000       0.00000000       0.00000000       0.00000000       0.00000000       0.00022923
He       0.00000000       0.00000000       4.98686869       0.00000000       0.00000000      -0.00022923
2
Properties=species:S:1:pos:R:3:forces:R:3 energy=0.001590112977890543 pbc="F F F"
He       0.00000000       0.00000000       0.00000000       0.00000000       0.00000000       0.00024799
He       0.00000000       0.00000000       5.04646465       0.00000000       0.00000000      -0.00024799
2
Properties=species:S:1:pos:R:3:forces:R:3 energy=0.0016052669544087985 pbc="F F F"
He       0.00000000       0.00000000       0.00000000       0.00000000       0.00000000       0.00025847
He       0.00000000       0.00000000       5.10606061       0.00000000       0.00000000      -0.00025847
2
Properties=species:S:1:pos:R:3:forces:R:3 energy=0.001620697624433408 pbc="F F F"
He       0.00000000       0.00000000       0.00000000       0.00000000       0.00000000       0.00025840
He       0.00000000       0.00000000       5.16565657       0.00000000       0.00000000      -0.00025840
2
Properties=species:S:1:pos:R:3:forces:R:3 energy=0.001636233313475479 pbc="F F F"
He       0.00000000       0.00000000       0.00000000       0.00000000       0.00000000       0.00026734
He       0.00000000       0.00000000       5.22525253       0.00000000       0.00000000      -0.00026734
2
Properties=species:S:1:pos:R:3:forces:R:3 energy=0.0016534265085842237 pbc="F F F"
He       0.00000000       0.00000000       0.00000000       0.00000000       0.00000000       0.00031878
He       0.00000000       0.00000000       5.28484848       0.00000000       0.00000000      -0.00031878
2
Properties=species:S:1:pos:R:3:forces:R:3 energy=0.0016751769395642227 pbc="F F F"
He       0.00000000       0.00000000       0.00000000       0.00000000       0.00000000       0.00041563
He       0.00000000       0.00000000       5.34444444       0.00000000       0.00000000      -0.00041563
2
Properties=species:S:1:pos:R:3:forces:R:3 energy=0.0017028901748593792 pbc="F F F"
He       0.00000000       0.00000000       0.00000000       0.00000000       0.00000000       0.00050913
He       0.00000000       0.00000000       5.40404040       0.00000000       0.00000000      -0.00050913
2
Properties=species:S:1:pos:R:3:forces:R:3 energy=0.001735008574653788 pbc="F F F"
He       0.00000000       0.00000000       0.00000000       0.00000000       0.00000000       0.00056140
He       0.00000000       0.00000000       5.46363636       0.00000000       0.00000000      -0.00056140
2
Properties=species:S:1:pos:R:3:forces:R:3 energy=0.0017691730390590806 pbc="F F F"
He       0.00000000       0.00000000       0.00000000       0.00000000       0.00000000       0.00058269
He       0.00000000       0.00000000       5.52323232       0.00000000       0.00000000      -0.00058269
2
Properties=species:S:1:pos:R:3:forces:R:3 energy=0.0018042045937402247 pbc="F F F"
He       0.00000000       0.00000000       0.00000000       0.00000000       0.00000000       0.00059030
He       0.00000000       0.00000000       5.58282828       0.00000000       0.00000000      -0.00059030
2
Properties=species:S:1:pos:R:3:forces:R:3 energy=0.0018388916083096527 pbc="F F F"
He       0.00000000       0.00000000       0.00000000       0.00000000       0.00000000       0.00056434
He       0.00000000       0.00000000       5.64242424       0.00000000       0.00000000      -0.00056434
2
Properties=species:S:1:pos:R:3:forces:R:3 energy=0.0018698861126838972 pbc="F F F"
He       0.00000000       0.00000000       0.00000000       0.00000000       0.00000000       0.00046007
He       0.00000000       0.00000000       5.70202020       0.00000000       0.00000000      -0.00046007
2
Properties=species:S:1:pos:R:3:forces:R:3 energy=0.001892380919233137 pbc="F F F"
He       0.00000000       0.00000000       0.00000000       0.00000000       0.00000000       0.00029129
He       0.00000000       0.00000000       5.76161616       0.00000000       0.00000000      -0.00029129
2
Properties=species:S:1:pos:R:3:forces:R:3 energy=0.001904999559395191 pbc="F F F"
He       0.00000000       0.00000000       0.00000000       0.00000000       0.00000000       0.00014158
He       0.00000000       0.00000000       5.82121212       0.00000000       0.00000000      -0.00014158
2
Properties=species:S:1:pos:R:3:forces:R:3 energy=0.001910671360635024 pbc="F F F"
He       0.00000000       0.00000000       0.00000000       0.00000000       0.00000000       0.00006049
He       0.00000000       0.00000000       5.88080808       0.00000000       0.00000000      -0.00006049
2
Properties=species:S:1:pos:R:3:forces:R:3 energy=0.00191320200419575 pbc="F F F"
He       0.00000000       0.00000000       0.00000000       0.00000000       0.00000000       0.00002945
He       0.00000000       0.00000000       5.94040404       0.00000000       0.00000000      -0.00002945
2
Properties=species:S:1:pos:R:3:forces:R:3 energy=0.0019146129817079068 pbc="F F F"
He       0.00000000       0.00000000       0.00000000       0.00000000       0.00000000       0.00002058
He       0.00000000       0.00000000       6.00000000       0.00000000       0.00000000      -0.00002058
