2
Properties=species:S:1:pos:R:3:forces:R:3 energy=74613.04575957572 pbc="F F F"
Hf       0.00000000       0.00000000       0.00000000       0.00000000       0.00000000 -1876086.50000000
Hf       0.00000000       0.00000000       0.10000000       0.00000000       0.00000000 1876086.50000000
2
Properties=species:S:1:pos:R:3:forces:R:3 energy=20660.719587700718 pbc="F F F"
Hf       0.00000000       0.00000000       0.00000000       0.00000000       0.00000000 -387744.09375000
Hf       0.00000000       0.00000000       0.15959596       0.00000000       0.00000000  387744.09375000
2
Properties=species:S:1:pos:R:3:forces:R:3 energy=7499.136091606968 pbc="F F F"
Hf       0.00000000       0.00000000       0.00000000       0.00000000       0.00000000 -116662.53125000
Hf       0.00000000       0.00000000       0.21919192       0.00000000       0.00000000  116662.53125000
2
Properties=species:S:1:pos:R:3:forces:R:3 energy=3157.6666091850925 pbc="F F F"
Hf       0.00000000       0.00000000       0.00000000       0.00000000       0.00000000  -42926.73046875
Hf       0.00000000       0.00000000       0.27878788       0.00000000       0.00000000   42926.73046875
2
Properties=species:S:1:pos:R:3:forces:R:3 energy=1470.049055477323 pbc="F F F"
Hf       0.00000000       0.00000000       0.00000000       0.00000000       0.00000000  -17796.20117188
Hf       0.00000000       0.00000000       0.33838384       0.00000000       0.00000000   17796.20117188
2
Properties=species:S:1:pos:R:3:forces:R:3 energy=743.9622634851355 pbc="F F F"
Hf       0.00000000       0.00000000       0.00000000       0.00000000       0.00000000   -8003.44238281
Hf       0.00000000       0.00000000       0.39797980       0.00000000       0.00000000    8003.44238281
2
Properties=species:S:1:pos:R:3:forces:R:3 energy=407.85648955935426 pbc="F F F"
Hf       0.00000000       0.00000000       0.00000000       0.00000000       0.00000000   -3836.70727539
Hf       0.00000000       0.00000000       0.45757576       0.00000000       0.00000000    3836.70727539
2
Properties=species:S:1:pos:R:3:forces:R:3 energy=242.70068207374052 pbc="F F F"
Hf       0.00000000       0.00000000       0.00000000       0.00000000       0.00000000   -1942.58520508
Hf       0.00000000       0.00000000       0.51717172       0.00000000       0.00000000    1942.58520508
2
Properties=species:S:1:pos:R:3:forces:R:3 energy=157.2203354035565 pbc="F F F"
Hf       0.00000000       0.00000000       0.00000000       0.00000000       0.00000000   -1032.16650391
Hf       0.00000000       0.00000000       0.57676768       0.00000000       0.00000000    1032.16650391
2
Properties=species:S:1:pos:R:3:forces:R:3 energy=110.91305393159062 pbc="F F F"
Hf       0.00000000       0.00000000       0.00000000       0.00000000       0.00000000    -571.83337402
Hf       0.00000000       0.00000000       0.63636364       0.00000000       0.00000000     571.83337402
2
Properties=species:S:1:pos:R:3:forces:R:3 energy=84.8543457755187 pbc="F F F"
Hf       0.00000000       0.00000000       0.00000000       0.00000000       0.00000000    -327.16619873
Hf       0.00000000       0.00000000       0.69595960       0.00000000       0.00000000     327.16619873
2
Properties=species:S:1:pos:R:3:forces:R:3 energy=69.82285930863773 pbc="F F F"
Hf       0.00000000       0.00000000       0.00000000       0.00000000       0.00000000    -189.70753479
Hf       0.00000000       0.00000000       0.75555556       0.00000000       0.00000000     189.70753479
2
Properties=species:S:1:pos:R:3:forces:R:3 energy=61.14498005116938 pbc="F F F"
Hf       0.00000000       0.00000000       0.00000000       0.00000000       0.00000000    -108.45141602
Hf       0.00000000       0.00000000       0.81515152       0.00000000       0.00000000     108.45141602
2
Properties=species:S:1:pos:R:3:forces:R:3 energy=56.22122832465282 pbc="F F F"
Hf       0.00000000       0.00000000       0.00000000       0.00000000       0.00000000     -61.58112335
Hf       0.00000000       0.00000000       0.87474747       0.00000000       0.00000000      61.58112335
2
Properties=species:S:1:pos:R:3:forces:R:3 energy=53.30708586489788 pbc="F F F"
Hf       0.00000000       0.00000000       0.00000000       0.00000000       0.00000000     -39.79818344
Hf       0.00000000       0.00000000       0.93434343       0.00000000       0.00000000      39.79818344
2
Properties=species:S:1:pos:R:3:forces:R:3 energy=51.12178333959914 pbc="F F F"
Hf       0.00000000       0.00000000       0.00000000       0.00000000       0.00000000     -35.94544601
Hf       0.00000000       0.00000000       0.99393939       0.00000000       0.00000000      35.94544601
2
Properties=species:S:1:pos:R:3:forces:R:3 energy=48.79624879781085 pbc="F F F"
Hf       0.00000000       0.00000000       0.00000000       0.00000000       0.00000000     -43.54946518
Hf       0.00000000       0.00000000       1.05353535       0.00000000       0.00000000      43.54946518
2
Properties=species:S:1:pos:R:3:forces:R:3 energy=45.80309655320566 pbc="F F F"
Hf       0.00000000       0.00000000       0.00000000       0.00000000       0.00000000     -57.64159393
Hf       0.00000000       0.00000000       1.11313131       0.00000000       0.00000000      57.64159393
2
Properties=species:S:1:pos:R:3:forces:R:3 energy=41.868355079844605 pbc="F F F"
Hf       0.00000000       0.00000000       0.00000000       0.00000000       0.00000000     -74.65008545
Hf       0.00000000       0.00000000       1.17272727       0.00000000       0.00000000      74.65008545
2
Properties=species:S:1:pos:R:3:forces:R:3 energy=36.905995340832426 pbc="F F F"
Hf       0.00000000       0.00000000       0.00000000       0.00000000       0.00000000     -91.61210632
Hf       0.00000000       0.00000000       1.23232323       0.00000000       0.00000000      91.61210632
2
Properties=species:S:1:pos:R:3:forces:R:3 energy=31.013789975617403 pbc="F F F"
Hf       0.00000000       0.00000000       0.00000000       0.00000000       0.00000000    -105.32686615
Hf       0.00000000       0.00000000       1.29191919       0.00000000       0.00000000     105.32686615
2
Properties=species:S:1:pos:R:3:forces:R:3 energy=24.47056287158465 pbc="F F F"
Hf       0.00000000       0.00000000       0.00000000       0.00000000       0.00000000    -113.10858917
Hf       0.00000000       0.00000000       1.35151515       0.00000000       0.00000000     113.10858917
2
Properties=species:S:1:pos:R:3:forces:R:3 energy=17.687094041925715 pbc="F F F"
Hf       0.00000000       0.00000000       0.00000000       0.00000000       0.00000000    -113.03186035
Hf       0.00000000       0.00000000       1.41111111       0.00000000       0.00000000     113.03186035
2
Properties=species:S:1:pos:R:3:forces:R:3 energy=11.216678666488153 pbc="F F F"
Hf       0.00000000       0.00000000       0.00000000       0.00000000       0.00000000    -101.99484253
Hf       0.00000000       0.00000000       1.47070707       0.00000000       0.00000000     101.99484253
2
Properties=species:S:1:pos:R:3:forces:R:3 energy=5.761549646305411 pbc="F F F"
Hf       0.00000000       0.00000000       0.00000000       0.00000000       0.00000000     -79.78243256
Hf       0.00000000       0.00000000       1.53030303       0.00000000       0.00000000      79.78243256
2
Properties=species:S:1:pos:R:3:forces:R:3 energy=1.7315543105910614 pbc="F F F"
Hf       0.00000000       0.00000000       0.00000000       0.00000000       0.00000000     -56.28379059
Hf       0.00000000       0.00000000       1.58989899       0.00000000       0.00000000      56.28379059
2
Properties=species:S:1:pos:R:3:forces:R:3 energy=-1.109117528634247 pbc="F F F"
Hf       0.00000000       0.00000000       0.00000000       0.00000000       0.00000000     -40.54177094
Hf       0.00000000       0.00000000       1.64949495       0.00000000       0.00000000      40.54177094
2
Properties=species:S:1:pos:R:3:forces:R:3 energy=-3.2417515899742515 pbc="F F F"
Hf       0.00000000       0.00000000       0.00000000       0.00000000       0.00000000     -31.77059746
Hf       0.00000000       0.00000000       1.70909091       0.00000000       0.00000000      31.77059746
2
Properties=species:S:1:pos:R:3:forces:R:3 energy=-4.939553767618337 pbc="F F F"
Hf       0.00000000       0.00000000       0.00000000       0.00000000       0.00000000     -25.35073090
Hf       0.00000000       0.00000000       1.76868687       0.00000000       0.00000000      25.35073090
2
Properties=species:S:1:pos:R:3:forces:R:3 energy=-6.27886530012078 pbc="F F F"
Hf       0.00000000       0.00000000       0.00000000       0.00000000       0.00000000     -19.77361870
Hf       0.00000000       0.00000000       1.82828283       0.00000000       0.00000000      19.77361870
2
Properties=species:S:1:pos:R:3:forces:R:3 energy=-7.3219622490793626 pbc="F F F"
Hf       0.00000000       0.00000000       0.00000000       0.00000000       0.00000000     -15.44645500
Hf       0.00000000       0.00000000       1.88787879       0.00000000       0.00000000      15.44645500
2
Properties=species:S:1:pos:R:3:forces:R:3 energy=-8.1412646143561 pbc="F F F"
Hf       0.00000000       0.00000000       0.00000000       0.00000000       0.00000000     -12.18672466
Hf       0.00000000       0.00000000       1.94747475       0.00000000       0.00000000      12.18672466
2
Properties=species:S:1:pos:R:3:forces:R:3 energy=-8.787106112935183 pbc="F F F"
Hf       0.00000000       0.00000000       0.00000000       0.00000000       0.00000000      -9.57041550
Hf       0.00000000       0.00000000       2.00707071       0.00000000       0.00000000       9.57041550
2
Properties=species:S:1:pos:R:3:forces:R:3 energy=-9.290548435320808 pbc="F F F"
Hf       0.00000000       0.00000000       0.00000000       0.00000000       0.00000000      -7.38937712
Hf       0.00000000       0.00000000       2.06666667       0.00000000       0.00000000       7.38937712
2
Properties=species:S:1:pos:R:3:forces:R:3 energy=-9.67500601593134 pbc="F F F"
Hf       0.00000000       0.00000000       0.00000000       0.00000000       0.00000000      -5.56875896
Hf       0.00000000       0.00000000       2.12626263       0.00000000       0.00000000       5.56875896
2
Properties=species:S:1:pos:R:3:forces:R:3 energy=-9.960499504417848 pbc="F F F"
Hf       0.00000000       0.00000000       0.00000000       0.00000000       0.00000000      -4.06010818
Hf       0.00000000       0.00000000       2.18585859       0.00000000       0.00000000       4.06010818
2
Properties=species:S:1:pos:R:3:forces:R:3 energy=-10.164053235609963 pbc="F F F"
Hf       0.00000000       0.00000000       0.00000000       0.00000000       0.00000000      -2.80823112
Hf       0.00000000       0.00000000       2.24545455       0.00000000       0.00000000       2.80823112
2
Properties=species:S:1:pos:R:3:forces:R:3 energy=-10.298995371951799 pbc="F F F"
Hf       0.00000000       0.00000000       0.00000000       0.00000000       0.00000000      -1.74686253
Hf       0.00000000       0.00000000       2.30505051       0.00000000       0.00000000       1.74686253
2
Properties=species:S:1:pos:R:3:forces:R:3 energy=-10.374980430393991 pbc="F F F"
Hf       0.00000000       0.00000000       0.00000000       0.00000000       0.00000000      -0.82349730
Hf       0.00000000       0.00000000       2.36464646       0.00000000       0.00000000       0.82349730
2
Properties=species:S:1:pos:R:3:forces:R:3 energy=-10.399505567535964 pbc="F F F"
Hf       0.00000000       0.00000000       0.00000000       0.00000000       0.00000000      -0.01963304
Hf       0.00000000       0.00000000       2.42424242       0.00000000       0.00000000       0.01963304
2
Properties=species:S:1:pos:R:3:forces:R:3 energy=-10.379861673572403 pbc="F F F"
Hf       0.00000000       0.00000000       0.00000000       0.00000000       0.00000000       0.65605319
Hf       0.00000000       0.00000000       2.48383838       0.00000000       0.00000000      -0.65605319
2
Properties=species:S:1:pos:R:3:forces:R:3 energy=-10.324154304327692 pbc="F F F"
Hf       0.00000000       0.00000000       0.00000000       0.00000000       0.00000000       1.18892789
Hf       0.00000000       0.00000000       2.54343434       0.00000000       0.00000000      -1.18892789
2
Properties=species:S:1:pos:R:3:forces:R:3 energy=-10.2410455172925 pbc="F F F"
Hf       0.00000000       0.00000000       0.00000000       0.00000000       0.00000000       1.57687843
Hf       0.00000000       0.00000000       2.60303030       0.00000000       0.00000000      -1.57687843
2
Properties=species:S:1:pos:R:3:forces:R:3 energy=-10.13874152867411 pbc="F F F"
Hf       0.00000000       0.00000000       0.00000000       0.00000000       0.00000000       1.83753717
Hf       0.00000000       0.00000000       2.66262626       0.00000000       0.00000000      -1.83753717
2
Properties=species:S:1:pos:R:3:forces:R:3 energy=-10.023935940563847 pbc="F F F"
Hf       0.00000000       0.00000000       0.00000000       0.00000000       0.00000000       2.00199437
Hf       0.00000000       0.00000000       2.72222222       0.00000000       0.00000000      -2.00199437
2
Properties=species:S:1:pos:R:3:forces:R:3 energy=-9.901413797721625 pbc="F F F"
Hf       0.00000000       0.00000000       0.00000000       0.00000000       0.00000000       2.10085177
Hf       0.00000000       0.00000000       2.78181818       0.00000000       0.00000000      -2.10085177
2
Properties=species:S:1:pos:R:3:forces:R:3 energy=-9.774443185948888 pbc="F F F"
Hf       0.00000000       0.00000000       0.00000000       0.00000000       0.00000000       2.15336132
Hf       0.00000000       0.00000000       2.84141414       0.00000000       0.00000000      -2.15336132
2
Properties=species:S:1:pos:R:3:forces:R:3 energy=-9.645527211487309 pbc="F F F"
Hf       0.00000000       0.00000000       0.00000000       0.00000000       0.00000000       2.16666365
Hf       0.00000000       0.00000000       2.90101010       0.00000000       0.00000000      -2.16666365
2
Properties=species:S:1:pos:R:3:forces:R:3 energy=-9.516930257379812 pbc="F F F"
Hf       0.00000000       0.00000000       0.00000000       0.00000000       0.00000000       2.14311481
Hf       0.00000000       0.00000000       2.96060606       0.00000000       0.00000000      -2.14311481
2
Properties=species:S:1:pos:R:3:forces:R:3 energy=-9.390718940621165 pbc="F F F"
Hf       0.00000000       0.00000000       0.00000000       0.00000000       0.00000000       2.08780813
Hf       0.00000000       0.00000000       3.02020202       0.00000000       0.00000000      -2.08780813
2
Properties=species:S:1:pos:R:3:forces:R:3 energy=-9.268516962756074 pbc="F F F"
Hf       0.00000000       0.00000000       0.00000000       0.00000000       0.00000000       2.01054692
Hf       0.00000000       0.00000000       3.07979798       0.00000000       0.00000000      -2.01054692
2
Properties=species:S:1:pos:R:3:forces:R:3 energy=-9.151280940411471 pbc="F F F"
Hf       0.00000000       0.00000000       0.00000000       0.00000000       0.00000000       1.92302716
Hf       0.00000000       0.00000000       3.13939394       0.00000000       0.00000000      -1.92302716
2
Properties=species:S:1:pos:R:3:forces:R:3 energy=-9.039302899637368 pbc="F F F"
Hf       0.00000000       0.00000000       0.00000000       0.00000000       0.00000000       1.83562386
Hf       0.00000000       0.00000000       3.19898990       0.00000000       0.00000000      -1.83562386
2
Properties=species:S:1:pos:R:3:forces:R:3 energy=-8.93233982152476 pbc="F F F"
Hf       0.00000000       0.00000000       0.00000000       0.00000000       0.00000000       1.75554168
Hf       0.00000000       0.00000000       3.25858586       0.00000000       0.00000000      -1.75554168
2
Properties=species:S:1:pos:R:3:forces:R:3 energy=-8.829878345324039 pbc="F F F"
Hf       0.00000000       0.00000000       0.00000000       0.00000000       0.00000000       1.68417537
Hf       0.00000000       0.00000000       3.31818182       0.00000000       0.00000000      -1.68417537
2
Properties=species:S:1:pos:R:3:forces:R:3 energy=-8.73153891492305 pbc="F F F"
Hf       0.00000000       0.00000000       0.00000000       0.00000000       0.00000000       1.61583877
Hf       0.00000000       0.00000000       3.37777778       0.00000000       0.00000000      -1.61583877
2
Properties=species:S:1:pos:R:3:forces:R:3 energy=-8.637365761097497 pbc="F F F"
Hf       0.00000000       0.00000000       0.00000000       0.00000000       0.00000000       1.54358506
Hf       0.00000000       0.00000000       3.43737374       0.00000000       0.00000000      -1.54358506
2
Properties=species:S:1:pos:R:3:forces:R:3 energy=-8.547655479857054 pbc="F F F"
Hf       0.00000000       0.00000000       0.00000000       0.00000000       0.00000000       1.46651912
Hf       0.00000000       0.00000000       3.49696970       0.00000000       0.00000000      -1.46651912
2
Properties=species:S:1:pos:R:3:forces:R:3 energy=-8.462562496471111 pbc="F F F"
Hf       0.00000000       0.00000000       0.00000000       0.00000000       0.00000000       1.38972127
Hf       0.00000000       0.00000000       3.55656566       0.00000000       0.00000000      -1.38972127
2
Properties=species:S:1:pos:R:3:forces:R:3 energy=-8.38187501559427 pbc="F F F"
Hf       0.00000000       0.00000000       0.00000000       0.00000000       0.00000000       1.31975710
Hf       0.00000000       0.00000000       3.61616162       0.00000000       0.00000000      -1.31975710
2
Properties=species:S:1:pos:R:3:forces:R:3 energy=-8.305031567150293 pbc="F F F"
Hf       0.00000000       0.00000000       0.00000000       0.00000000       0.00000000       1.26117456
Hf       0.00000000       0.00000000       3.67575758       0.00000000       0.00000000      -1.26117456
2
Properties=species:S:1:pos:R:3:forces:R:3 energy=-8.231304519912019 pbc="F F F"
Hf       0.00000000       0.00000000       0.00000000       0.00000000       0.00000000       1.21502352
Hf       0.00000000       0.00000000       3.73535354       0.00000000       0.00000000      -1.21502352
2
Properties=species:S:1:pos:R:3:forces:R:3 energy=-8.160007432202026 pbc="F F F"
Hf       0.00000000       0.00000000       0.00000000       0.00000000       0.00000000       1.17896414
Hf       0.00000000       0.00000000       3.79494949       0.00000000       0.00000000      -1.17896414
2
Properties=species:S:1:pos:R:3:forces:R:3 energy=-8.090670436710237 pbc="F F F"
Hf       0.00000000       0.00000000       0.00000000       0.00000000       0.00000000       1.14844906
Hf       0.00000000       0.00000000       3.85454545       0.00000000       0.00000000      -1.14844906
2
Properties=species:S:1:pos:R:3:forces:R:3 energy=-8.02311333334036 pbc="F F F"
Hf       0.00000000       0.00000000       0.00000000       0.00000000       0.00000000       1.11844242
Hf       0.00000000       0.00000000       3.91414141       0.00000000       0.00000000      -1.11844242
2
Properties=species:S:1:pos:R:3:forces:R:3 energy=-7.957432243785406 pbc="F F F"
Hf       0.00000000       0.00000000       0.00000000       0.00000000       0.00000000       1.08489549
Hf       0.00000000       0.00000000       3.97373737       0.00000000       0.00000000      -1.08489549
2
Properties=species:S:1:pos:R:3:forces:R:3 energy=-7.893917636558318 pbc="F F F"
Hf       0.00000000       0.00000000       0.00000000       0.00000000       0.00000000       1.04559934
Hf       0.00000000       0.00000000       4.03333333       0.00000000       0.00000000      -1.04559934
2
Properties=species:S:1:pos:R:3:forces:R:3 energy=-7.83292700513508 pbc="F F F"
Hf       0.00000000       0.00000000       0.00000000       0.00000000       0.00000000       1.00024641
Hf       0.00000000       0.00000000       4.09292929       0.00000000       0.00000000      -1.00024641
2
Properties=species:S:1:pos:R:3:forces:R:3 energy=-7.774793879092691 pbc="F F F"
Hf       0.00000000       0.00000000       0.00000000       0.00000000       0.00000000       0.94997919
Hf       0.00000000       0.00000000       4.15252525       0.00000000       0.00000000      -0.94997919
2
Properties=species:S:1:pos:R:3:forces:R:3 energy=-7.719756884742378 pbc="F F F"
Hf       0.00000000       0.00000000       0.00000000       0.00000000       0.00000000       0.89672238
Hf       0.00000000       0.00000000       4.21212121       0.00000000       0.00000000      -0.89672238
2
Properties=species:S:1:pos:R:3:forces:R:3 energy=-7.6679294746416 pbc="F F F"
Hf       0.00000000       0.00000000       0.00000000       0.00000000       0.00000000       0.84255767
Hf       0.00000000       0.00000000       4.27171717       0.00000000       0.00000000      -0.84255767
2
Properties=species:S:1:pos:R:3:forces:R:3 energy=-7.61931181684478 pbc="F F F"
Hf       0.00000000       0.00000000       0.00000000       0.00000000       0.00000000       0.78932947
Hf       0.00000000       0.00000000       4.33131313       0.00000000       0.00000000      -0.78932947
2
Properties=species:S:1:pos:R:3:forces:R:3 energy=-7.573801412033673 pbc="F F F"
Hf       0.00000000       0.00000000       0.00000000       0.00000000       0.00000000       0.73844641
Hf       0.00000000       0.00000000       4.39090909       0.00000000       0.00000000      -0.73844641
2
Properties=species:S:1:pos:R:3:forces:R:3 energy=-7.531228786612145 pbc="F F F"
Hf       0.00000000       0.00000000       0.00000000       0.00000000       0.00000000       0.69084007
Hf       0.00000000       0.00000000       4.45050505       0.00000000       0.00000000      -0.69084007
2
Properties=species:S:1:pos:R:3:forces:R:3 energy=-7.491383343283021 pbc="F F F"
Hf       0.00000000       0.00000000       0.00000000       0.00000000       0.00000000       0.64700860
Hf       0.00000000       0.00000000       4.51010101       0.00000000       0.00000000      -0.64700860
2
Properties=species:S:1:pos:R:3:forces:R:3 energy=-7.454033858710246 pbc="F F F"
Hf       0.00000000       0.00000000       0.00000000       0.00000000       0.00000000       0.60701168
Hf       0.00000000       0.00000000       4.56969697       0.00000000       0.00000000      -0.60701168
2
Properties=species:S:1:pos:R:3:forces:R:3 energy=-7.418962739766545 pbc="F F F"
Hf       0.00000000       0.00000000       0.00000000       0.00000000       0.00000000       0.57047939
Hf       0.00000000       0.00000000       4.62929293       0.00000000       0.00000000      -0.57047939
2
Properties=species:S:1:pos:R:3:forces:R:3 energy=-7.3859844727989366 pbc="F F F"
Hf       0.00000000       0.00000000       0.00000000       0.00000000       0.00000000       0.53666490
Hf       0.00000000       0.00000000       4.68888889       0.00000000       0.00000000      -0.53666490
2
Properties=species:S:1:pos:R:3:forces:R:3 energy=-7.354962880129283 pbc="F F F"
Hf       0.00000000       0.00000000       0.00000000       0.00000000       0.00000000       0.50456095
Hf       0.00000000       0.00000000       4.74848485       0.00000000       0.00000000      -0.50456095
2
Properties=species:S:1:pos:R:3:forces:R:3 energy=-7.325830904796618 pbc="F F F"
Hf       0.00000000       0.00000000       0.00000000       0.00000000       0.00000000       0.47316220
Hf       0.00000000       0.00000000       4.80808081       0.00000000       0.00000000      -0.47316220
2
Properties=species:S:1:pos:R:3:forces:R:3 energy=-7.298566756027949 pbc="F F F"
Hf       0.00000000       0.00000000       0.00000000       0.00000000       0.00000000       0.44173720
Hf       0.00000000       0.00000000       4.86767677       0.00000000       0.00000000      -0.44173720
2
Properties=species:S:1:pos:R:3:forces:R:3 energy=-7.273183339625217 pbc="F F F"
Hf       0.00000000       0.00000000       0.00000000       0.00000000       0.00000000       0.41006127
Hf       0.00000000       0.00000000       4.92727273       0.00000000       0.00000000      -0.41006127
2
Properties=species:S:1:pos:R:3:forces:R:3 energy=-7.249691055163499 pbc="F F F"
Hf       0.00000000       0.00000000       0.00000000       0.00000000       0.00000000       0.37834883
Hf       0.00000000       0.00000000       4.98686869       0.00000000       0.00000000      -0.37834883
2
Properties=species:S:1:pos:R:3:forces:R:3 energy=-7.22808156768851 pbc="F F F"
Hf       0.00000000       0.00000000       0.00000000       0.00000000       0.00000000       0.34702665
Hf       0.00000000       0.00000000       5.04646465       0.00000000       0.00000000      -0.34702665
2
Properties=species:S:1:pos:R:3:forces:R:3 energy=-7.208316802448104 pbc="F F F"
Hf       0.00000000       0.00000000       0.00000000       0.00000000       0.00000000       0.31636977
Hf       0.00000000       0.00000000       5.10606061       0.00000000       0.00000000      -0.31636977
2
Properties=species:S:1:pos:R:3:forces:R:3 energy=-7.1903550885725975 pbc="F F F"
Hf       0.00000000       0.00000000       0.00000000       0.00000000       0.00000000       0.28647369
Hf       0.00000000       0.00000000       5.16565657       0.00000000       0.00000000      -0.28647369
2
Properties=species:S:1:pos:R:3:forces:R:3 energy=-7.174150672734144 pbc="F F F"
Hf       0.00000000       0.00000000       0.00000000       0.00000000       0.00000000       0.25755897
Hf       0.00000000       0.00000000       5.22525253       0.00000000       0.00000000      -0.25755897
2
Properties=species:S:1:pos:R:3:forces:R:3 energy=-7.159632134761732 pbc="F F F"
Hf       0.00000000       0.00000000       0.00000000       0.00000000       0.00000000       0.22987285
Hf       0.00000000       0.00000000       5.28484848       0.00000000       0.00000000      -0.22987285
2
Properties=species:S:1:pos:R:3:forces:R:3 energy=-7.146741535805484 pbc="F F F"
Hf       0.00000000       0.00000000       0.00000000       0.00000000       0.00000000       0.20263945
Hf       0.00000000       0.00000000       5.34444444       0.00000000       0.00000000      -0.20263945
2
Properties=species:S:1:pos:R:3:forces:R:3 energy=-7.135503865499366 pbc="F F F"
Hf       0.00000000       0.00000000       0.00000000       0.00000000       0.00000000       0.17421983
Hf       0.00000000       0.00000000       5.40404040       0.00000000       0.00000000      -0.17421983
2
Properties=species:S:1:pos:R:3:forces:R:3 energy=-7.125987941314209 pbc="F F F"
Hf       0.00000000       0.00000000       0.00000000       0.00000000       0.00000000       0.14526778
Hf       0.00000000       0.00000000       5.46363636       0.00000000       0.00000000      -0.14526778
2
Properties=species:S:1:pos:R:3:forces:R:3 energy=-7.118106048252244 pbc="F F F"
Hf       0.00000000       0.00000000       0.00000000       0.00000000       0.00000000       0.12062941
Hf       0.00000000       0.00000000       5.52323232       0.00000000       0.00000000      -0.12062941
2
Properties=species:S:1:pos:R:3:forces:R:3 energy=-7.111407948362585 pbc="F F F"
Hf       0.00000000       0.00000000       0.00000000       0.00000000       0.00000000       0.10609683
Hf       0.00000000       0.00000000       5.58282828       0.00000000       0.00000000      -0.10609683
2
Properties=species:S:1:pos:R:3:forces:R:3 energy=-7.10524093963527 pbc="F F F"
Hf       0.00000000       0.00000000       0.00000000       0.00000000       0.00000000       0.10225959
Hf       0.00000000       0.00000000       5.64242424       0.00000000       0.00000000      -0.10225959
2
Properties=species:S:1:pos:R:3:forces:R:3 energy=-7.0991557172828115 pbc="F F F"
Hf       0.00000000       0.00000000       0.00000000       0.00000000       0.00000000       0.10134228
Hf       0.00000000       0.00000000       5.70202020       0.00000000       0.00000000      -0.10134228
2
Properties=species:S:1:pos:R:3:forces:R:3 energy=-7.093326861750344 pbc="F F F"
Hf       0.00000000       0.00000000       0.00000000       0.00000000       0.00000000       0.09251250
Hf       0.00000000       0.00000000       5.76161616       0.00000000       0.00000000      -0.09251250
2
Properties=species:S:1:pos:R:3:forces:R:3 energy=-7.088364434185169 pbc="F F F"
Hf       0.00000000       0.00000000       0.00000000       0.00000000       0.00000000       0.07227770
Hf       0.00000000       0.00000000       5.82121212       0.00000000       0.00000000      -0.07227770
2
Properties=species:S:1:pos:R:3:forces:R:3 energy=-7.084816209128735 pbc="F F F"
Hf       0.00000000       0.00000000       0.00000000       0.00000000       0.00000000       0.04713623
Hf       0.00000000       0.00000000       5.88080808       0.00000000       0.00000000      -0.04713623
2
Properties=species:S:1:pos:R:3:forces:R:3 energy=-7.082636392391209 pbc="F F F"
Hf       0.00000000       0.00000000       0.00000000       0.00000000       0.00000000       0.02722196
Hf       0.00000000       0.00000000       5.94040404       0.00000000       0.00000000      -0.02722196
2
Properties=species:S:1:pos:R:3:forces:R:3 energy=-7.081321576662359 pbc="F F F"
Hf       0.00000000       0.00000000       0.00000000       0.00000000       0.00000000       0.01939954
Hf       0.00000000       0.00000000       6.00000000       0.00000000       0.00000000      -0.01939954
