2
Properties=species:S:1:pos:R:3:forces:R:3 energy=25042.285243008697 pbc="F F F"
Kr       0.00000000       0.00000000       0.00000000       0.00000000       0.00000000 -582234.25000000
Kr       0.00000000       0.00000000       0.10000000       0.00000000       0.00000000  582234.25000000
2
Properties=species:S:1:pos:R:3:forces:R:3 energy=7626.593348477446 pbc="F F F"
Kr       0.00000000       0.00000000       0.00000000       0.00000000       0.00000000 -132508.12500000
Kr       0.00000000       0.00000000       0.15959596       0.00000000       0.00000000  132508.12500000
2
Properties=species:S:1:pos:R:3:forces:R:3 energy=2992.514246914946 pbc="F F F"
Kr       0.00000000       0.00000000       0.00000000       0.00000000       0.00000000  -42827.97656250
Kr       0.00000000       0.00000000       0.21919192       0.00000000       0.00000000   42827.97656250
2
Properties=species:S:1:pos:R:3:forces:R:3 energy=1351.8127088321762 pbc="F F F"
Kr       0.00000000       0.00000000       0.00000000       0.00000000       0.00000000  -16895.28906250
Kr       0.00000000       0.00000000       0.27878788       0.00000000       0.00000000   16895.28906250
2
Properties=species:S:1:pos:R:3:forces:R:3 energy=666.5636243626876 pbc="F F F"
Kr       0.00000000       0.00000000       0.00000000       0.00000000       0.00000000   -7532.96875000
Kr       0.00000000       0.00000000       0.33838384       0.00000000       0.00000000    7532.96875000
2
Properties=species:S:1:pos:R:3:forces:R:3 energy=349.34704112340586 pbc="F F F"
Kr       0.00000000       0.00000000       0.00000000       0.00000000       0.00000000   -3639.33178711
Kr       0.00000000       0.00000000       0.39797980       0.00000000       0.00000000    3639.33178711
2
Properties=species:S:1:pos:R:3:forces:R:3 energy=191.92234326960403 pbc="F F F"
Kr       0.00000000       0.00000000       0.00000000       0.00000000       0.00000000   -1862.70043945
Kr       0.00000000       0.00000000       0.45757576       0.00000000       0.00000000    1862.70043945
2
Properties=species:S:1:pos:R:3:forces:R:3 energy=109.62735277123494 pbc="F F F"
Kr       0.00000000       0.00000000       0.00000000       0.00000000       0.00000000    -998.00292969
Kr       0.00000000       0.00000000       0.51717172       0.00000000       0.00000000     998.00292969
2
Properties=species:S:1:pos:R:3:forces:R:3 energy=64.73313439927063 pbc="F F F"
Kr       0.00000000       0.00000000       0.00000000       0.00000000       0.00000000    -556.04956055
Kr       0.00000000       0.00000000       0.57676768       0.00000000       0.00000000     556.04956055
2
Properties=species:S:1:pos:R:3:forces:R:3 energy=39.31566168346022 pbc="F F F"
Kr       0.00000000       0.00000000       0.00000000       0.00000000       0.00000000    -320.73425293
Kr       0.00000000       0.00000000       0.63636364       0.00000000       0.00000000     320.73425293
2
Properties=species:S:1:pos:R:3:forces:R:3 energy=24.442121001569298 pbc="F F F"
Kr       0.00000000       0.00000000       0.00000000       0.00000000       0.00000000    -190.81709290
Kr       0.00000000       0.00000000       0.69595960       0.00000000       0.00000000     190.81709290
2
Properties=species:S:1:pos:R:3:forces:R:3 energy=15.479116239762256 pbc="F F F"
Kr       0.00000000       0.00000000       0.00000000       0.00000000       0.00000000    -116.66475677
Kr       0.00000000       0.00000000       0.75555556       0.00000000       0.00000000     116.66475677
2
Properties=species:S:1:pos:R:3:forces:R:3 energy=9.938364278704329 pbc="F F F"
Kr       0.00000000       0.00000000       0.00000000       0.00000000       0.00000000     -73.00452423
Kr       0.00000000       0.00000000       0.81515152       0.00000000       0.00000000      73.00452423
2
Properties=species:S:1:pos:R:3:forces:R:3 energy=6.439341023274177 pbc="F F F"
Kr       0.00000000       0.00000000       0.00000000       0.00000000       0.00000000     -46.56190109
Kr       0.00000000       0.00000000       0.87474747       0.00000000       0.00000000      46.56190109
2
Properties=species:S:1:pos:R:3:forces:R:3 energy=4.191417143590744 pbc="F F F"
Kr       0.00000000       0.00000000       0.00000000       0.00000000       0.00000000     -30.14393616
Kr       0.00000000       0.00000000       0.93434343       0.00000000       0.00000000      30.14393616
2
Properties=species:S:1:pos:R:3:forces:R:3 energy=2.728257199639256 pbc="F F F"
Kr       0.00000000       0.00000000       0.00000000       0.00000000       0.00000000     -19.72874260
Kr       0.00000000       0.00000000       0.99393939       0.00000000       0.00000000      19.72874260
2
Properties=species:S:1:pos:R:3:forces:R:3 energy=1.767235965713007 pbc="F F F"
Kr       0.00000000       0.00000000       0.00000000       0.00000000       0.00000000     -13.00199795
Kr       0.00000000       0.00000000       1.05353535       0.00000000       0.00000000      13.00199795
2
Properties=species:S:1:pos:R:3:forces:R:3 energy=1.1328405489298394 pbc="F F F"
Kr       0.00000000       0.00000000       0.00000000       0.00000000       0.00000000      -8.59213161
Kr       0.00000000       0.00000000       1.11313131       0.00000000       0.00000000       8.59213161
2
Properties=species:S:1:pos:R:3:forces:R:3 energy=0.7138943658073015 pbc="F F F"
Kr       0.00000000       0.00000000       0.00000000       0.00000000       0.00000000      -5.66393948
Kr       0.00000000       0.00000000       1.17272727       0.00000000       0.00000000       5.66393948
2
Properties=species:S:1:pos:R:3:forces:R:3 energy=0.438707398319739 pbc="F F F"
Kr       0.00000000       0.00000000       0.00000000       0.00000000       0.00000000      -3.69997287
Kr       0.00000000       0.00000000       1.23232323       0.00000000       0.00000000       3.69997287
2
Properties=species:S:1:pos:R:3:forces:R:3 energy=0.2604294063214171 pbc="F F F"
Kr       0.00000000       0.00000000       0.00000000       0.00000000       0.00000000      -2.36636996
Kr       0.00000000       0.00000000       1.29191919       0.00000000       0.00000000       2.36636996
2
Properties=species:S:1:pos:R:3:forces:R:3 energy=0.14874000519508976 pbc="F F F"
Kr       0.00000000       0.00000000       0.00000000       0.00000000       0.00000000      -1.43368328
Kr       0.00000000       0.00000000       1.35151515       0.00000000       0.00000000       1.43368328
2
Properties=species:S:1:pos:R:3:forces:R:3 energy=0.08465546457119169 pbc="F F F"
Kr       0.00000000       0.00000000       0.00000000       0.00000000       0.00000000      -0.74973691
Kr       0.00000000       0.00000000       1.41111111       0.00000000       0.00000000       0.74973691
2
Properties=species:S:1:pos:R:3:forces:R:3 energy=0.05602982928971878 pbc="F F F"
Kr       0.00000000       0.00000000       0.00000000       0.00000000       0.00000000      -0.23627476
Kr       0.00000000       0.00000000       1.47070707       0.00000000       0.00000000       0.23627476
2
Properties=species:S:1:pos:R:3:forces:R:3 energy=0.05355387900810256 pbc="F F F"
Kr       0.00000000       0.00000000       0.00000000       0.00000000       0.00000000       0.12849799
Kr       0.00000000       0.00000000       1.53030303       0.00000000       0.00000000      -0.12849799
2
Properties=species:S:1:pos:R:3:forces:R:3 energy=0.06837057175706376 pbc="F F F"
Kr       0.00000000       0.00000000       0.00000000       0.00000000       0.00000000       0.34375292
Kr       0.00000000       0.00000000       1.58989899       0.00000000       0.00000000      -0.34375292
2
Properties=species:S:1:pos:R:3:forces:R:3 energy=0.09162668624625948 pbc="F F F"
Kr       0.00000000       0.00000000       0.00000000       0.00000000       0.00000000       0.41361517
Kr       0.00000000       0.00000000       1.64949495       0.00000000       0.00000000      -0.41361517
2
Properties=species:S:1:pos:R:3:forces:R:3 energy=0.11517596594837276 pbc="F F F"
Kr       0.00000000       0.00000000       0.00000000       0.00000000       0.00000000       0.35850048
Kr       0.00000000       0.00000000       1.70909091       0.00000000       0.00000000      -0.35850048
2
Properties=species:S:1:pos:R:3:forces:R:3 energy=0.13260455013423447 pbc="F F F"
Kr       0.00000000       0.00000000       0.00000000       0.00000000       0.00000000       0.21552330
Kr       0.00000000       0.00000000       1.76868687       0.00000000       0.00000000      -0.21552330
2
Properties=species:S:1:pos:R:3:forces:R:3 energy=0.1400520988386147 pbc="F F F"
Kr       0.00000000       0.00000000       0.00000000       0.00000000       0.00000000       0.03155521
Kr       0.00000000       0.00000000       1.82828283       0.00000000       0.00000000      -0.03155521
2
Properties=species:S:1:pos:R:3:forces:R:3 energy=0.1364450600972964 pbc="F F F"
Kr       0.00000000       0.00000000       0.00000000       0.00000000       0.00000000      -0.14888753
Kr       0.00000000       0.00000000       1.88787879       0.00000000       0.00000000       0.14888753
2
Properties=species:S:1:pos:R:3:forces:R:3 energy=0.12300943793701653 pbc="F F F"
Kr       0.00000000       0.00000000       0.00000000       0.00000000       0.00000000      -0.29449585
Kr       0.00000000       0.00000000       1.94747475       0.00000000       0.00000000       0.29449585
2
Properties=species:S:1:pos:R:3:forces:R:3 energy=0.1023358776830533 pbc="F F F"
Kr       0.00000000       0.00000000       0.00000000       0.00000000       0.00000000      -0.39061308
Kr       0.00000000       0.00000000       2.00707071       0.00000000       0.00000000       0.39061308
2
Properties=species:S:1:pos:R:3:forces:R:3 energy=0.07746404586370008 pbc="F F F"
Kr       0.00000000       0.00000000       0.00000000       0.00000000       0.00000000      -0.43601689
Kr       0.00000000       0.00000000       2.06666667       0.00000000       0.00000000       0.43601689
2
Properties=species:S:1:pos:R:3:forces:R:3 energy=0.051238670193629036 pbc="F F F"
Kr       0.00000000       0.00000000       0.00000000       0.00000000       0.00000000      -0.43761301
Kr       0.00000000       0.00000000       2.12626263       0.00000000       0.00000000       0.43761301
2
Properties=species:S:1:pos:R:3:forces:R:3 energy=0.025964299790898832 pbc="F F F"
Kr       0.00000000       0.00000000       0.00000000       0.00000000       0.00000000      -0.40601048
Kr       0.00000000       0.00000000       2.18585859       0.00000000       0.00000000       0.40601048
2
Properties=species:S:1:pos:R:3:forces:R:3 energy=0.0032776534416379816 pbc="F F F"
Kr       0.00000000       0.00000000       0.00000000       0.00000000       0.00000000      -0.35263792
Kr       0.00000000       0.00000000       2.24545455       0.00000000       0.00000000       0.35263792
2
Properties=species:S:1:pos:R:3:forces:R:3 energy=-0.015846899002508408 pbc="F F F"
Kr       0.00000000       0.00000000       0.00000000       0.00000000       0.00000000      -0.28810734
Kr       0.00000000       0.00000000       2.30505051       0.00000000       0.00000000       0.28810734
2
Properties=species:S:1:pos:R:3:forces:R:3 energy=-0.031019241691447517 pbc="F F F"
Kr       0.00000000       0.00000000       0.00000000       0.00000000       0.00000000      -0.22132155
Kr       0.00000000       0.00000000       2.36464646       0.00000000       0.00000000       0.22132155
2
Properties=species:S:1:pos:R:3:forces:R:3 energy=-0.04231735766766463 pbc="F F F"
Kr       0.00000000       0.00000000       0.00000000       0.00000000       0.00000000      -0.15902896
Kr       0.00000000       0.00000000       2.42424242       0.00000000       0.00000000       0.15902896
2
Properties=species:S:1:pos:R:3:forces:R:3 energy=-0.05015408306330918 pbc="F F F"
Kr       0.00000000       0.00000000       0.00000000       0.00000000       0.00000000      -0.10571172
Kr       0.00000000       0.00000000       2.48383838       0.00000000       0.00000000       0.10571172
2
Properties=species:S:1:pos:R:3:forces:R:3 energy=-0.05514084343165751 pbc="F F F"
Kr       0.00000000       0.00000000       0.00000000       0.00000000       0.00000000      -0.06358083
Kr       0.00000000       0.00000000       2.54343434       0.00000000       0.00000000       0.06358083
2
Properties=species:S:1:pos:R:3:forces:R:3 energy=-0.05796127086687831 pbc="F F F"
Kr       0.00000000       0.00000000       0.00000000       0.00000000       0.00000000      -0.03292204
Kr       0.00000000       0.00000000       2.60303030       0.00000000       0.00000000       0.03292204
2
Properties=species:S:1:pos:R:3:forces:R:3 energy=-0.05927037846463652 pbc="F F F"
Kr       0.00000000       0.00000000       0.00000000       0.00000000       0.00000000      -0.01257611
Kr       0.00000000       0.00000000       2.66262626       0.00000000       0.00000000       0.01257611
2
Properties=species:S:1:pos:R:3:forces:R:3 energy=-0.05962441647709014 pbc="F F F"
Kr       0.00000000       0.00000000       0.00000000       0.00000000       0.00000000      -0.00048303
Kr       0.00000000       0.00000000       2.72222222       0.00000000       0.00000000       0.00048303
2
Properties=species:S:1:pos:R:3:forces:R:3 energy=-0.0594442599828501 pbc="F F F"
Kr       0.00000000       0.00000000       0.00000000       0.00000000       0.00000000       0.00574568
Kr       0.00000000       0.00000000       2.78181818       0.00000000       0.00000000      -0.00574568
2
Properties=species:S:1:pos:R:3:forces:R:3 energy=-0.05901222340980167 pbc="F F F"
Kr       0.00000000       0.00000000       0.00000000       0.00000000       0.00000000       0.00829581
Kr       0.00000000       0.00000000       2.84141414       0.00000000       0.00000000      -0.00829581
2
Properties=species:S:1:pos:R:3:forces:R:3 energy=-0.05849608513573379 pbc="F F F"
Kr       0.00000000       0.00000000       0.00000000       0.00000000       0.00000000       0.00877846
Kr       0.00000000       0.00000000       2.90101010       0.00000000       0.00000000      -0.00877846
2
Properties=species:S:1:pos:R:3:forces:R:3 energy=-0.05798841446657836 pbc="F F F"
Kr       0.00000000       0.00000000       0.00000000       0.00000000       0.00000000       0.00810783
Kr       0.00000000       0.00000000       2.96060606       0.00000000       0.00000000      -0.00810783
2
Properties=species:S:1:pos:R:3:forces:R:3 energy=-0.05754586062729146 pbc="F F F"
Kr       0.00000000       0.00000000       0.00000000       0.00000000       0.00000000       0.00661079
Kr       0.00000000       0.00000000       3.02020202       0.00000000       0.00000000      -0.00661079
2
Properties=species:S:1:pos:R:3:forces:R:3 energy=-0.057217261015104874 pbc="F F F"
Kr       0.00000000       0.00000000       0.00000000       0.00000000       0.00000000       0.00426579
Kr       0.00000000       0.00000000       3.07979798       0.00000000       0.00000000      -0.00426579
2
Properties=species:S:1:pos:R:3:forces:R:3 energy=-0.05705666029267875 pbc="F F F"
Kr       0.00000000       0.00000000       0.00000000       0.00000000       0.00000000       0.00095511
Kr       0.00000000       0.00000000       3.13939394       0.00000000       0.00000000      -0.00095511
2
Properties=species:S:1:pos:R:3:forces:R:3 energy=-0.05712327231225038 pbc="F F F"
Kr       0.00000000       0.00000000       0.00000000       0.00000000       0.00000000      -0.00334962
Kr       0.00000000       0.00000000       3.19898990       0.00000000       0.00000000       0.00334962
2
Properties=species:S:1:pos:R:3:forces:R:3 energy=-0.05747272365705483 pbc="F F F"
Kr       0.00000000       0.00000000       0.00000000       0.00000000       0.00000000      -0.00849371
Kr       0.00000000       0.00000000       3.25858586       0.00000000       0.00000000       0.00849371
2
Properties=species:S:1:pos:R:3:forces:R:3 energy=-0.05814561925648913 pbc="F F F"
Kr       0.00000000       0.00000000       0.00000000       0.00000000       0.00000000      -0.01413393
Kr       0.00000000       0.00000000       3.31818182       0.00000000       0.00000000       0.01413393
2
Properties=species:S:1:pos:R:3:forces:R:3 energy=-0.059157871267017395 pbc="F F F"
Kr       0.00000000       0.00000000       0.00000000       0.00000000       0.00000000      -0.01979721
Kr       0.00000000       0.00000000       3.37777778       0.00000000       0.00000000       0.01979721
2
Properties=species:S:1:pos:R:3:forces:R:3 energy=-0.06049560744978892 pbc="F F F"
Kr       0.00000000       0.00000000       0.00000000       0.00000000       0.00000000      -0.02497515
Kr       0.00000000       0.00000000       3.43737374       0.00000000       0.00000000       0.02497515
2
Properties=species:S:1:pos:R:3:forces:R:3 energy=-0.06211609997135224 pbc="F F F"
Kr       0.00000000       0.00000000       0.00000000       0.00000000       0.00000000      -0.02922155
Kr       0.00000000       0.00000000       3.49696970       0.00000000       0.00000000       0.02922155
2
Properties=species:S:1:pos:R:3:forces:R:3 energy=-0.06395381034637984 pbc="F F F"
Kr       0.00000000       0.00000000       0.00000000       0.00000000       0.00000000      -0.03222706
Kr       0.00000000       0.00000000       3.55656566       0.00000000       0.00000000       0.03222706
2
Properties=species:S:1:pos:R:3:forces:R:3 energy=-0.06592983880024295 pbc="F F F"
Kr       0.00000000       0.00000000       0.00000000       0.00000000       0.00000000      -0.03385423
Kr       0.00000000       0.00000000       3.61616162       0.00000000       0.00000000       0.03385423
2
Properties=species:S:1:pos:R:3:forces:R:3 energy=-0.06796199481711682 pbc="F F F"
Kr       0.00000000       0.00000000       0.00000000       0.00000000       0.00000000      -0.03412868
Kr       0.00000000       0.00000000       3.67575758       0.00000000       0.00000000       0.03412868
2
Properties=species:S:1:pos:R:3:forces:R:3 energy=-0.0699736494296648 pbc="F F F"
Kr       0.00000000       0.00000000       0.00000000       0.00000000       0.00000000      -0.03319711
Kr       0.00000000       0.00000000       3.73535354       0.00000000       0.00000000       0.03319711
2
Properties=species:S:1:pos:R:3:forces:R:3 energy=-0.0718990419438001 pbc="F F F"
Kr       0.00000000       0.00000000       0.00000000       0.00000000       0.00000000      -0.03126927
Kr       0.00000000       0.00000000       3.79494949       0.00000000       0.00000000       0.03126927
2
Properties=species:S:1:pos:R:3:forces:R:3 energy=-0.07368528065854833 pbc="F F F"
Kr       0.00000000       0.00000000       0.00000000       0.00000000       0.00000000      -0.02856211
Kr       0.00000000       0.00000000       3.85454545       0.00000000       0.00000000       0.02856211
2
Properties=species:S:1:pos:R:3:forces:R:3 energy=-0.07529160567452735 pbc="F F F"
Kr       0.00000000       0.00000000       0.00000000       0.00000000       0.00000000      -0.02525968
Kr       0.00000000       0.00000000       3.91414141       0.00000000       0.00000000       0.02525968
2
Properties=species:S:1:pos:R:3:forces:R:3 energy=-0.07668686253664102 pbc="F F F"
Kr       0.00000000       0.00000000       0.00000000       0.00000000       0.00000000      -0.02149465
Kr       0.00000000       0.00000000       3.97373737       0.00000000       0.00000000       0.02149465
2
Properties=species:S:1:pos:R:3:forces:R:3 energy=-0.0778461267140795 pbc="F F F"
Kr       0.00000000       0.00000000       0.00000000       0.00000000       0.00000000      -0.01735299
Kr       0.00000000       0.00000000       4.03333333       0.00000000       0.00000000       0.01735299
2
Properties=species:S:1:pos:R:3:forces:R:3 energy=-0.07874889510910436 pbc="F F F"
Kr       0.00000000       0.00000000       0.00000000       0.00000000       0.00000000      -0.01289395
Kr       0.00000000       0.00000000       4.09292929       0.00000000       0.00000000       0.01289395
2
Properties=species:S:1:pos:R:3:forces:R:3 energy=-0.07937791796179129 pbc="F F F"
Kr       0.00000000       0.00000000       0.00000000       0.00000000       0.00000000      -0.00817993
Kr       0.00000000       0.00000000       4.15252525       0.00000000       0.00000000       0.00817993
2
Properties=species:S:1:pos:R:3:forces:R:3 energy=-0.07972057764990748 pbc="F F F"
Kr       0.00000000       0.00000000       0.00000000       0.00000000       0.00000000      -0.00330268
Kr       0.00000000       0.00000000       4.21212121       0.00000000       0.00000000       0.00330268
2
Properties=species:S:1:pos:R:3:forces:R:3 energy=-0.07977102460316848 pbc="F F F"
Kr       0.00000000       0.00000000       0.00000000       0.00000000       0.00000000       0.00160032
Kr       0.00000000       0.00000000       4.27171717       0.00000000       0.00000000      -0.00160032
2
Properties=species:S:1:pos:R:3:forces:R:3 energy=-0.07953293797783673 pbc="F F F"
Kr       0.00000000       0.00000000       0.00000000       0.00000000       0.00000000       0.00634666
Kr       0.00000000       0.00000000       4.33131313       0.00000000       0.00000000      -0.00634666
2
Properties=species:S:1:pos:R:3:forces:R:3 energy=-0.07902182536426533 pbc="F F F"
Kr       0.00000000       0.00000000       0.00000000       0.00000000       0.00000000       0.01072679
Kr       0.00000000       0.00000000       4.39090909       0.00000000       0.00000000      -0.01072679
2
Properties=species:S:1:pos:R:3:forces:R:3 energy=-0.07826589576575824 pbc="F F F"
Kr       0.00000000       0.00000000       0.00000000       0.00000000       0.00000000       0.01452836
Kr       0.00000000       0.00000000       4.45050505       0.00000000       0.00000000      -0.01452836
2
Properties=species:S:1:pos:R:3:forces:R:3 energy=-0.077305473347577 pbc="F F F"
Kr       0.00000000       0.00000000       0.00000000       0.00000000       0.00000000       0.01756084
Kr       0.00000000       0.00000000       4.51010101       0.00000000       0.00000000      -0.01756084
2
Properties=species:S:1:pos:R:3:forces:R:3 energy=-0.07619113907454993 pbc="F F F"
Kr       0.00000000       0.00000000       0.00000000       0.00000000       0.00000000       0.01967079
Kr       0.00000000       0.00000000       4.56969697       0.00000000       0.00000000      -0.01967079
2
Properties=species:S:1:pos:R:3:forces:R:3 energy=-0.07498143014958725 pbc="F F F"
Kr       0.00000000       0.00000000       0.00000000       0.00000000       0.00000000       0.02074707
Kr       0.00000000       0.00000000       4.62929293       0.00000000       0.00000000      -0.02074707
2
Properties=species:S:1:pos:R:3:forces:R:3 energy=-0.07374010295175468 pbc="F F F"
Kr       0.00000000       0.00000000       0.00000000       0.00000000       0.00000000       0.02072579
Kr       0.00000000       0.00000000       4.68888889       0.00000000       0.00000000      -0.02072579
2
Properties=species:S:1:pos:R:3:forces:R:3 energy=-0.07253303036493743 pbc="F F F"
Kr       0.00000000       0.00000000       0.00000000       0.00000000       0.00000000       0.01960248
Kr       0.00000000       0.00000000       4.74848485       0.00000000       0.00000000      -0.01960248
2
Properties=species:S:1:pos:R:3:forces:R:3 energy=-0.07142396095956352 pbc="F F F"
Kr       0.00000000       0.00000000       0.00000000       0.00000000       0.00000000       0.01746125
Kr       0.00000000       0.00000000       4.80808081       0.00000000       0.00000000      -0.01746125
2
Properties=species:S:1:pos:R:3:forces:R:3 energy=-0.07046790407597853 pbc="F F F"
Kr       0.00000000       0.00000000       0.00000000       0.00000000       0.00000000       0.01451427
Kr       0.00000000       0.00000000       4.86767677       0.00000000       0.00000000      -0.01451427
2
Properties=species:S:1:pos:R:3:forces:R:3 energy=-0.06970273514599566 pbc="F F F"
Kr       0.00000000       0.00000000       0.00000000       0.00000000       0.00000000       0.01112990
Kr       0.00000000       0.00000000       4.92727273       0.00000000       0.00000000      -0.01112990
2
Properties=species:S:1:pos:R:3:forces:R:3 energy=-0.06914016278637526 pbc="F F F"
Kr       0.00000000       0.00000000       0.00000000       0.00000000       0.00000000       0.00780314
Kr       0.00000000       0.00000000       4.98686869       0.00000000       0.00000000      -0.00780314
2
Properties=species:S:1:pos:R:3:forces:R:3 energy=-0.06876156594616407 pbc="F F F"
Kr       0.00000000       0.00000000       0.00000000       0.00000000       0.00000000       0.00502659
Kr       0.00000000       0.00000000       5.04646465       0.00000000       0.00000000      -0.00502659
2
Properties=species:S:1:pos:R:3:forces:R:3 energy=-0.06852485240062228 pbc="F F F"
Kr       0.00000000       0.00000000       0.00000000       0.00000000       0.00000000       0.00304848
Kr       0.00000000       0.00000000       5.10606061       0.00000000       0.00000000      -0.00304848
2
Properties=species:S:1:pos:R:3:forces:R:3 energy=-0.06838665137397845 pbc="F F F"
Kr       0.00000000       0.00000000       0.00000000       0.00000000       0.00000000       0.00163804
Kr       0.00000000       0.00000000       5.16565657       0.00000000       0.00000000      -0.00163804
2
Properties=species:S:1:pos:R:3:forces:R:3 energy=-0.06833105129374453 pbc="F F F"
Kr       0.00000000       0.00000000       0.00000000       0.00000000       0.00000000       0.00016361
Kr       0.00000000       0.00000000       5.22525253       0.00000000       0.00000000      -0.00016361
2
Properties=species:S:1:pos:R:3:forces:R:3 energy=-0.06837614068152137 pbc="F F F"
Kr       0.00000000       0.00000000       0.00000000       0.00000000       0.00000000      -0.00172531
Kr       0.00000000       0.00000000       5.28484848       0.00000000       0.00000000       0.00172531
2
Properties=species:S:1:pos:R:3:forces:R:3 energy=-0.06853289732918623 pbc="F F F"
Kr       0.00000000       0.00000000       0.00000000       0.00000000       0.00000000      -0.00340689
Kr       0.00000000       0.00000000       5.34444444       0.00000000       0.00000000       0.00340689
2
Properties=species:S:1:pos:R:3:forces:R:3 energy=-0.06875864682477337 pbc="F F F"
Kr       0.00000000       0.00000000       0.00000000       0.00000000       0.00000000      -0.00394242
Kr       0.00000000       0.00000000       5.40404040       0.00000000       0.00000000       0.00394242
2
Properties=species:S:1:pos:R:3:forces:R:3 energy=-0.06898040695138936 pbc="F F F"
Kr       0.00000000       0.00000000       0.00000000       0.00000000       0.00000000      -0.00337771
Kr       0.00000000       0.00000000       5.46363636       0.00000000       0.00000000       0.00337771
2
Properties=species:S:1:pos:R:3:forces:R:3 energy=-0.06915718357549498 pbc="F F F"
Kr       0.00000000       0.00000000       0.00000000       0.00000000       0.00000000      -0.00260502
Kr       0.00000000       0.00000000       5.52323232       0.00000000       0.00000000       0.00260502
2
Properties=species:S:1:pos:R:3:forces:R:3 energy=-0.06930056491662767 pbc="F F F"
Kr       0.00000000       0.00000000       0.00000000       0.00000000       0.00000000      -0.00229166
Kr       0.00000000       0.00000000       5.58282828       0.00000000       0.00000000       0.00229166
2
Properties=species:S:1:pos:R:3:forces:R:3 energy=-0.06943512084657634 pbc="F F F"
Kr       0.00000000       0.00000000       0.00000000       0.00000000       0.00000000      -0.00219580
Kr       0.00000000       0.00000000       5.64242424       0.00000000       0.00000000       0.00219580
2
Properties=species:S:1:pos:R:3:forces:R:3 energy=-0.06955080048398614 pbc="F F F"
Kr       0.00000000       0.00000000       0.00000000       0.00000000       0.00000000      -0.00154209
Kr       0.00000000       0.00000000       5.70202020       0.00000000       0.00000000       0.00154209
2
Properties=species:S:1:pos:R:3:forces:R:3 energy=-0.0696052443752019 pbc="F F F"
Kr       0.00000000       0.00000000       0.00000000       0.00000000       0.00000000      -0.00023622
Kr       0.00000000       0.00000000       5.76161616       0.00000000       0.00000000       0.00023622
2
Properties=species:S:1:pos:R:3:forces:R:3 energy=-0.06957990476818275 pbc="F F F"
Kr       0.00000000       0.00000000       0.00000000       0.00000000       0.00000000       0.00102649
Kr       0.00000000       0.00000000       5.82121212       0.00000000       0.00000000      -0.00102649
2
Properties=species:S:1:pos:R:3:forces:R:3 energy=-0.06949324831230569 pbc="F F F"
Kr       0.00000000       0.00000000       0.00000000       0.00000000       0.00000000       0.00178534
Kr       0.00000000       0.00000000       5.88080808       0.00000000       0.00000000      -0.00178534
2
Properties=species:S:1:pos:R:3:forces:R:3 energy=-0.06937610043026235 pbc="F F F"
Kr       0.00000000       0.00000000       0.00000000       0.00000000       0.00000000       0.00209475
Kr       0.00000000       0.00000000       5.94040404       0.00000000       0.00000000      -0.00209475
2
Properties=species:S:1:pos:R:3:forces:R:3 energy=-0.06924976731860122 pbc="F F F"
Kr       0.00000000       0.00000000       0.00000000       0.00000000       0.00000000       0.00209550
Kr       0.00000000       0.00000000       6.00000000       0.00000000       0.00000000      -0.00209550
