2
Properties=species:S:1:pos:R:3:forces:R:3 energy=72991.0911630332 pbc="F F F"
Lu       0.00000000       0.00000000       0.00000000       0.00000000       0.00000000 -1833059.87500000
Lu       0.00000000       0.00000000       0.10000000       0.00000000       0.00000000 1833059.87500000
2
Properties=species:S:1:pos:R:3:forces:R:3 energy=20233.843116158194 pbc="F F F"
Lu       0.00000000       0.00000000       0.00000000       0.00000000       0.00000000 -379599.28125000
Lu       0.00000000       0.00000000       0.15959596       0.00000000       0.00000000  379599.28125000
2
Properties=species:S:1:pos:R:3:forces:R:3 energy=7340.678077095693 pbc="F F F"
Lu       0.00000000       0.00000000       0.00000000       0.00000000       0.00000000 -114387.45312500
Lu       0.00000000       0.00000000       0.21919192       0.00000000       0.00000000  114387.45312500
2
Properties=species:S:1:pos:R:3:forces:R:3 energy=3081.1172860800684 pbc="F F F"
Lu       0.00000000       0.00000000       0.00000000       0.00000000       0.00000000  -42155.46484375
Lu       0.00000000       0.00000000       0.27878788       0.00000000       0.00000000   42155.46484375
2
Properties=species:S:1:pos:R:3:forces:R:3 energy=1422.713233352029 pbc="F F F"
Lu       0.00000000       0.00000000       0.00000000       0.00000000       0.00000000  -17503.32226562
Lu       0.00000000       0.00000000       0.33838384       0.00000000       0.00000000   17503.32226562
2
Properties=species:S:1:pos:R:3:forces:R:3 energy=708.1731332543727 pbc="F F F"
Lu       0.00000000       0.00000000       0.00000000       0.00000000       0.00000000   -7881.11083984
Lu       0.00000000       0.00000000       0.39797980       0.00000000       0.00000000    7881.11083984
2
Properties=species:S:1:pos:R:3:forces:R:3 energy=377.12842500875524 pbc="F F F"
Lu       0.00000000       0.00000000       0.00000000       0.00000000       0.00000000   -3779.11254883
Lu       0.00000000       0.00000000       0.45757576       0.00000000       0.00000000    3779.11254883
2
Properties=species:S:1:pos:R:3:forces:R:3 energy=214.53967991057468 pbc="F F F"
Lu       0.00000000       0.00000000       0.00000000       0.00000000       0.00000000   -1910.09704590
Lu       0.00000000       0.00000000       0.51717172       0.00000000       0.00000000    1910.09704590
2
Properties=species:S:1:pos:R:3:forces:R:3 energy=130.66727392372223 pbc="F F F"
Lu       0.00000000       0.00000000       0.00000000       0.00000000       0.00000000   -1009.13311768
Lu       0.00000000       0.00000000       0.57676768       0.00000000       0.00000000    1009.13311768
2
Properties=species:S:1:pos:R:3:forces:R:3 energy=85.6099390681694 pbc="F F F"
Lu       0.00000000       0.00000000       0.00000000       0.00000000       0.00000000    -552.45782471
Lu       0.00000000       0.00000000       0.63636364       0.00000000       0.00000000     552.45782471
2
Properties=species:S:1:pos:R:3:forces:R:3 energy=60.62252000944352 pbc="F F F"
Lu       0.00000000       0.00000000       0.00000000       0.00000000       0.00000000    -310.79586792
Lu       0.00000000       0.00000000       0.69595960       0.00000000       0.00000000     310.79586792
2
Properties=species:S:1:pos:R:3:forces:R:3 energy=46.42530026851666 pbc="F F F"
Lu       0.00000000       0.00000000       0.00000000       0.00000000       0.00000000    -178.51338196
Lu       0.00000000       0.00000000       0.75555556       0.00000000       0.00000000     178.51338196
2
Properties=species:S:1:pos:R:3:forces:R:3 energy=38.22245009144653 pbc="F F F"
Lu       0.00000000       0.00000000       0.00000000       0.00000000       0.00000000    -103.49874115
Lu       0.00000000       0.00000000       0.81515152       0.00000000       0.00000000     103.49874115
2
Properties=species:S:1:pos:R:3:forces:R:3 energy=33.50460059442006 pbc="F F F"
Lu       0.00000000       0.00000000       0.00000000       0.00000000       0.00000000     -58.38092041
Lu       0.00000000       0.00000000       0.87474747       0.00000000       0.00000000      58.38092041
2
Properties=species:S:1:pos:R:3:forces:R:3 energy=30.9337238550139 pbc="F F F"
Lu       0.00000000       0.00000000       0.00000000       0.00000000       0.00000000     -30.14401245
Lu       0.00000000       0.00000000       0.93434343       0.00000000       0.00000000      30.14401245
2
Properties=species:S:1:pos:R:3:forces:R:3 energy=29.68213739711779 pbc="F F F"
Lu       0.00000000       0.00000000       0.00000000       0.00000000       0.00000000     -13.50943565
Lu       0.00000000       0.00000000       0.99393939       0.00000000       0.00000000      13.50943565
2
Properties=species:S:1:pos:R:3:forces:R:3 energy=29.154750398992373 pbc="F F F"
Lu       0.00000000       0.00000000       0.00000000       0.00000000       0.00000000      -5.39836931
Lu       0.00000000       0.00000000       1.05353535       0.00000000       0.00000000       5.39836931
2
Properties=species:S:1:pos:R:3:forces:R:3 energy=28.914205962470273 pbc="F F F"
Lu       0.00000000       0.00000000       0.00000000       0.00000000       0.00000000      -3.57570982
Lu       0.00000000       0.00000000       1.11313131       0.00000000       0.00000000       3.57570982
2
Properties=species:S:1:pos:R:3:forces:R:3 energy=28.63634833074152 pbc="F F F"
Lu       0.00000000       0.00000000       0.00000000       0.00000000       0.00000000      -6.39938498
Lu       0.00000000       0.00000000       1.17272727       0.00000000       0.00000000       6.39938498
2
Properties=species:S:1:pos:R:3:forces:R:3 energy=28.088240695360412 pbc="F F F"
Lu       0.00000000       0.00000000       0.00000000       0.00000000       0.00000000     -12.40886307
Lu       0.00000000       0.00000000       1.23232323       0.00000000       0.00000000      12.40886307
2
Properties=species:S:1:pos:R:3:forces:R:3 energy=27.120879175153313 pbc="F F F"
Lu       0.00000000       0.00000000       0.00000000       0.00000000       0.00000000     -20.25502396
Lu       0.00000000       0.00000000       1.29191919       0.00000000       0.00000000      20.25502396
2
Properties=species:S:1:pos:R:3:forces:R:3 energy=25.661885674907328 pbc="F F F"
Lu       0.00000000       0.00000000       0.00000000       0.00000000       0.00000000     -28.71658325
Lu       0.00000000       0.00000000       1.35151515       0.00000000       0.00000000      28.71658325
2
Properties=species:S:1:pos:R:3:forces:R:3 energy=23.706661703781634 pbc="F F F"
Lu       0.00000000       0.00000000       0.00000000       0.00000000       0.00000000     -36.75275803
Lu       0.00000000       0.00000000       1.41111111       0.00000000       0.00000000      36.75275803
2
Properties=species:S:1:pos:R:3:forces:R:3 energy=21.3073066037231 pbc="F F F"
Lu       0.00000000       0.00000000       0.00000000       0.00000000       0.00000000     -43.47258377
Lu       0.00000000       0.00000000       1.47070707       0.00000000       0.00000000      43.47258377
2
Properties=species:S:1:pos:R:3:forces:R:3 energy=18.57108598652801 pbc="F F F"
Lu       0.00000000       0.00000000       0.00000000       0.00000000       0.00000000     -47.87072372
Lu       0.00000000       0.00000000       1.53030303       0.00000000       0.00000000      47.87072372
2
Properties=species:S:1:pos:R:3:forces:R:3 energy=15.669373371561399 pbc="F F F"
Lu       0.00000000       0.00000000       0.00000000       0.00000000       0.00000000     -48.88242722
Lu       0.00000000       0.00000000       1.58989899       0.00000000       0.00000000      48.88242722
2
Properties=species:S:1:pos:R:3:forces:R:3 energy=12.81718341926652 pbc="F F F"
Lu       0.00000000       0.00000000       0.00000000       0.00000000       0.00000000     -46.30339432
Lu       0.00000000       0.00000000       1.64949495       0.00000000       0.00000000      46.30339432
2
Properties=species:S:1:pos:R:3:forces:R:3 energy=10.197082968809577 pbc="F F F"
Lu       0.00000000       0.00000000       0.00000000       0.00000000       0.00000000     -41.38338852
Lu       0.00000000       0.00000000       1.70909091       0.00000000       0.00000000      41.38338852
2
Properties=species:S:1:pos:R:3:forces:R:3 energy=7.899109600495637 pbc="F F F"
Lu       0.00000000       0.00000000       0.00000000       0.00000000       0.00000000     -35.70172119
Lu       0.00000000       0.00000000       1.76868687       0.00000000       0.00000000      35.70172119
2
Properties=species:S:1:pos:R:3:forces:R:3 energy=5.939936681166784 pbc="F F F"
Lu       0.00000000       0.00000000       0.00000000       0.00000000       0.00000000     -30.09465027
Lu       0.00000000       0.00000000       1.82828283       0.00000000       0.00000000      30.09465027
2
Properties=species:S:1:pos:R:3:forces:R:3 energy=4.303635292827008 pbc="F F F"
Lu       0.00000000       0.00000000       0.00000000       0.00000000       0.00000000     -24.90972328
Lu       0.00000000       0.00000000       1.88787879       0.00000000       0.00000000      24.90972328
2
Properties=species:S:1:pos:R:3:forces:R:3 energy=2.958176606677664 pbc="F F F"
Lu       0.00000000       0.00000000       0.00000000       0.00000000       0.00000000     -20.36131096
Lu       0.00000000       0.00000000       1.94747475       0.00000000       0.00000000      20.36131096
2
Properties=species:S:1:pos:R:3:forces:R:3 energy=1.8621114750503787 pbc="F F F"
Lu       0.00000000       0.00000000       0.00000000       0.00000000       0.00000000     -16.54393578
Lu       0.00000000       0.00000000       2.00707071       0.00000000       0.00000000      16.54393578
2
Properties=species:S:1:pos:R:3:forces:R:3 energy=0.9724404524731022 pbc="F F F"
Lu       0.00000000       0.00000000       0.00000000       0.00000000       0.00000000     -13.42053413
Lu       0.00000000       0.00000000       2.06666667       0.00000000       0.00000000      13.42053413
2
Properties=species:S:1:pos:R:3:forces:R:3 energy=0.2508068691497847 pbc="F F F"
Lu       0.00000000       0.00000000       0.00000000       0.00000000       0.00000000     -10.88554764
Lu       0.00000000       0.00000000       2.12626263       0.00000000       0.00000000      10.88554764
2
Properties=species:S:1:pos:R:3:forces:R:3 energy=-0.3344775051869332 pbc="F F F"
Lu       0.00000000       0.00000000       0.00000000       0.00000000       0.00000000      -8.82659435
Lu       0.00000000       0.00000000       2.18585859       0.00000000       0.00000000       8.82659435
2
Properties=species:S:1:pos:R:3:forces:R:3 energy=-0.8086020238188176 pbc="F F F"
Lu       0.00000000       0.00000000       0.00000000       0.00000000       0.00000000      -7.13747597
Lu       0.00000000       0.00000000       2.24545455       0.00000000       0.00000000       7.13747597
2
Properties=species:S:1:pos:R:3:forces:R:3 energy=-1.190496190338879 pbc="F F F"
Lu       0.00000000       0.00000000       0.00000000       0.00000000       0.00000000      -5.71508408
Lu       0.00000000       0.00000000       2.30505051       0.00000000       0.00000000       5.71508408
2
Properties=species:S:1:pos:R:3:forces:R:3 energy=-1.4933651214374577 pbc="F F F"
Lu       0.00000000       0.00000000       0.00000000       0.00000000       0.00000000      -4.47376919
Lu       0.00000000       0.00000000       2.36464646       0.00000000       0.00000000       4.47376919
2
Properties=species:S:1:pos:R:3:forces:R:3 energy=-1.7263535297704176 pbc="F F F"
Lu       0.00000000       0.00000000       0.00000000       0.00000000       0.00000000      -3.36598015
Lu       0.00000000       0.00000000       2.42424242       0.00000000       0.00000000       3.36598015
2
Properties=species:S:1:pos:R:3:forces:R:3 energy=-1.8971587078068302 pbc="F F F"
Lu       0.00000000       0.00000000       0.00000000       0.00000000       0.00000000      -2.39010692
Lu       0.00000000       0.00000000       2.48383838       0.00000000       0.00000000       2.39010692
2
Properties=species:S:1:pos:R:3:forces:R:3 energy=-2.014494907457732 pbc="F F F"
Lu       0.00000000       0.00000000       0.00000000       0.00000000       0.00000000      -1.57840037
Lu       0.00000000       0.00000000       2.54343434       0.00000000       0.00000000       1.57840037
2
Properties=species:S:1:pos:R:3:forces:R:3 energy=-2.0892900729664925 pbc="F F F"
Lu       0.00000000       0.00000000       0.00000000       0.00000000       0.00000000      -0.96695727
Lu       0.00000000       0.00000000       2.60303030       0.00000000       0.00000000       0.96695727
2
Properties=species:S:1:pos:R:3:forces:R:3 energy=-2.133899608958812 pbc="F F F"
Lu       0.00000000       0.00000000       0.00000000       0.00000000       0.00000000      -0.56303865
Lu       0.00000000       0.00000000       2.66262626       0.00000000       0.00000000       0.56303865
2
Properties=species:S:1:pos:R:3:forces:R:3 energy=-2.1598642627825337 pbc="F F F"
Lu       0.00000000       0.00000000       0.00000000       0.00000000       0.00000000      -0.33250478
Lu       0.00000000       0.00000000       2.72222222       0.00000000       0.00000000       0.33250478
2
Properties=species:S:1:pos:R:3:forces:R:3 energy=-2.175756849942277 pbc="F F F"
Lu       0.00000000       0.00000000       0.00000000       0.00000000       0.00000000      -0.21400040
Lu       0.00000000       0.00000000       2.78181818       0.00000000       0.00000000       0.21400040
2
Properties=species:S:1:pos:R:3:forces:R:3 energy=-2.186340755228612 pbc="F F F"
Lu       0.00000000       0.00000000       0.00000000       0.00000000       0.00000000      -0.14499933
Lu       0.00000000       0.00000000       2.84141414       0.00000000       0.00000000       0.14499933
2
Properties=species:S:1:pos:R:3:forces:R:3 energy=-2.193118107044503 pbc="F F F"
Lu       0.00000000       0.00000000       0.00000000       0.00000000       0.00000000      -0.08071252
Lu       0.00000000       0.00000000       2.90101010       0.00000000       0.00000000       0.08071252
2
Properties=species:S:1:pos:R:3:forces:R:3 energy=-2.19560028934257 pbc="F F F"
Lu       0.00000000       0.00000000       0.00000000       0.00000000       0.00000000       0.00116154
Lu       0.00000000       0.00000000       2.96060606       0.00000000       0.00000000      -0.00116154
2
Properties=species:S:1:pos:R:3:forces:R:3 energy=-2.1925322250285166 pbc="F F F"
Lu       0.00000000       0.00000000       0.00000000       0.00000000       0.00000000       0.10518118
Lu       0.00000000       0.00000000       3.02020202       0.00000000       0.00000000      -0.10518118
2
Properties=species:S:1:pos:R:3:forces:R:3 energy=-2.1827473726642683 pbc="F F F"
Lu       0.00000000       0.00000000       0.00000000       0.00000000       0.00000000       0.22487316
Lu       0.00000000       0.00000000       3.07979798       0.00000000       0.00000000      -0.22487316
2
Properties=species:S:1:pos:R:3:forces:R:3 energy=-2.1656701014205533 pbc="F F F"
Lu       0.00000000       0.00000000       0.00000000       0.00000000       0.00000000       0.34747946
Lu       0.00000000       0.00000000       3.13939394       0.00000000       0.00000000      -0.34747946
2
Properties=species:S:1:pos:R:3:forces:R:3 energy=-2.1415842667744722 pbc="F F F"
Lu       0.00000000       0.00000000       0.00000000       0.00000000       0.00000000       0.45734826
Lu       0.00000000       0.00000000       3.19898990       0.00000000       0.00000000      -0.45734826
2
Properties=species:S:1:pos:R:3:forces:R:3 energy=-2.111705985196924 pbc="F F F"
Lu       0.00000000       0.00000000       0.00000000       0.00000000       0.00000000       0.53975880
Lu       0.00000000       0.00000000       3.25858586       0.00000000       0.00000000      -0.53975880
2
Properties=species:S:1:pos:R:3:forces:R:3 energy=-2.0779848770848455 pbc="F F F"
Lu       0.00000000       0.00000000       0.00000000       0.00000000       0.00000000       0.58543545
Lu       0.00000000       0.00000000       3.31818182       0.00000000       0.00000000      -0.58543545
2
Properties=species:S:1:pos:R:3:forces:R:3 energy=-2.0426740328404547 pbc="F F F"
Lu       0.00000000       0.00000000       0.00000000       0.00000000       0.00000000       0.59384239
Lu       0.00000000       0.00000000       3.37777778       0.00000000       0.00000000      -0.59384239
2
Properties=species:S:1:pos:R:3:forces:R:3 energy=-2.007791059001646 pbc="F F F"
Lu       0.00000000       0.00000000       0.00000000       0.00000000       0.00000000       0.57286781
Lu       0.00000000       0.00000000       3.43737374       0.00000000       0.00000000      -0.57286781
2
Properties=species:S:1:pos:R:3:forces:R:3 energy=-1.9747293707628892 pbc="F F F"
Lu       0.00000000       0.00000000       0.00000000       0.00000000       0.00000000       0.53489566
Lu       0.00000000       0.00000000       3.49696970       0.00000000       0.00000000      -0.53489566
2
Properties=species:S:1:pos:R:3:forces:R:3 energy=-1.944127164790869 pbc="F F F"
Lu       0.00000000       0.00000000       0.00000000       0.00000000       0.00000000       0.49221337
Lu       0.00000000       0.00000000       3.55656566       0.00000000       0.00000000      -0.49221337
2
Properties=species:S:1:pos:R:3:forces:R:3 energy=-1.9159593837757376 pbc="F F F"
Lu       0.00000000       0.00000000       0.00000000       0.00000000       0.00000000       0.45460695
Lu       0.00000000       0.00000000       3.61616162       0.00000000       0.00000000      -0.45460695
2
Properties=species:S:1:pos:R:3:forces:R:3 energy=-1.8896968648324073 pbc="F F F"
Lu       0.00000000       0.00000000       0.00000000       0.00000000       0.00000000       0.42925325
Lu       0.00000000       0.00000000       3.67575758       0.00000000       0.00000000      -0.42925325
2
Properties=species:S:1:pos:R:3:forces:R:3 energy=-1.864453244527094 pbc="F F F"
Lu       0.00000000       0.00000000       0.00000000       0.00000000       0.00000000       0.42106330
Lu       0.00000000       0.00000000       3.73535354       0.00000000       0.00000000      -0.42106330
2
Properties=species:S:1:pos:R:3:forces:R:3 energy=-1.8391160752565818 pbc="F F F"
Lu       0.00000000       0.00000000       0.00000000       0.00000000       0.00000000       0.43258360
Lu       0.00000000       0.00000000       3.79494949       0.00000000       0.00000000      -0.43258360
2
Properties=species:S:1:pos:R:3:forces:R:3 energy=-1.8124988067570167 pbc="F F F"
Lu       0.00000000       0.00000000       0.00000000       0.00000000       0.00000000       0.46384412
Lu       0.00000000       0.00000000       3.85454545       0.00000000       0.00000000      -0.46384412
2
Properties=species:S:1:pos:R:3:forces:R:3 energy=-1.7834799338550815 pbc="F F F"
Lu       0.00000000       0.00000000       0.00000000       0.00000000       0.00000000       0.51268899
Lu       0.00000000       0.00000000       3.91414141       0.00000000       0.00000000      -0.51268899
2
Properties=species:S:1:pos:R:3:forces:R:3 energy=-1.7511147399218145 pbc="F F F"
Lu       0.00000000       0.00000000       0.00000000       0.00000000       0.00000000       0.57536900
Lu       0.00000000       0.00000000       3.97373737       0.00000000       0.00000000      -0.57536900
2
Properties=species:S:1:pos:R:3:forces:R:3 energy=-1.7147220950746438 pbc="F F F"
Lu       0.00000000       0.00000000       0.00000000       0.00000000       0.00000000       0.64698201
Lu       0.00000000       0.00000000       4.03333333       0.00000000       0.00000000      -0.64698201
2
Properties=species:S:1:pos:R:3:forces:R:3 energy=-1.6739382754198213 pbc="F F F"
Lu       0.00000000       0.00000000       0.00000000       0.00000000       0.00000000       0.72167623
Lu       0.00000000       0.00000000       4.09292929       0.00000000       0.00000000      -0.72167623
2
Properties=species:S:1:pos:R:3:forces:R:3 energy=-1.628773795373268 pbc="F F F"
Lu       0.00000000       0.00000000       0.00000000       0.00000000       0.00000000       0.79283535
Lu       0.00000000       0.00000000       4.15252525       0.00000000       0.00000000      -0.79283535
2
Properties=species:S:1:pos:R:3:forces:R:3 energy=-1.5796480543822766 pbc="F F F"
Lu       0.00000000       0.00000000       0.00000000       0.00000000       0.00000000       0.85348266
Lu       0.00000000       0.00000000       4.21212121       0.00000000       0.00000000      -0.85348266
2
Properties=species:S:1:pos:R:3:forces:R:3 energy=-1.5273880382946141 pbc="F F F"
Lu       0.00000000       0.00000000       0.00000000       0.00000000       0.00000000       0.89691430
Lu       0.00000000       0.00000000       4.27171717       0.00000000       0.00000000      -0.89691430
2
Properties=species:S:1:pos:R:3:forces:R:3 energy=-1.473197362957105 pbc="F F F"
Lu       0.00000000       0.00000000       0.00000000       0.00000000       0.00000000       0.91752082
Lu       0.00000000       0.00000000       4.33131313       0.00000000       0.00000000      -0.91752082
2
Properties=species:S:1:pos:R:3:forces:R:3 energy=-1.4185553926464012 pbc="F F F"
Lu       0.00000000       0.00000000       0.00000000       0.00000000       0.00000000       0.91164780
Lu       0.00000000       0.00000000       4.39090909       0.00000000       0.00000000      -0.91164780
2
Properties=species:S:1:pos:R:3:forces:R:3 energy=-1.3650823890199237 pbc="F F F"
Lu       0.00000000       0.00000000       0.00000000       0.00000000       0.00000000       0.87837577
Lu       0.00000000       0.00000000       4.45050505       0.00000000       0.00000000      -0.87837577
2
Properties=species:S:1:pos:R:3:forces:R:3 energy=-1.3143599767581065 pbc="F F F"
Lu       0.00000000       0.00000000       0.00000000       0.00000000       0.00000000       0.82008350
Lu       0.00000000       0.00000000       4.51010101       0.00000000       0.00000000      -0.82008350
2
Properties=species:S:1:pos:R:3:forces:R:3 energy=-1.2677194457051348 pbc="F F F"
Lu       0.00000000       0.00000000       0.00000000       0.00000000       0.00000000       0.74254948
Lu       0.00000000       0.00000000       4.56969697       0.00000000       0.00000000      -0.74254948
2
Properties=species:S:1:pos:R:3:forces:R:3 energy=-1.2260641745449776 pbc="F F F"
Lu       0.00000000       0.00000000       0.00000000       0.00000000       0.00000000       0.65445006
Lu       0.00000000       0.00000000       4.62929293       0.00000000       0.00000000      -0.65445006
2
Properties=species:S:1:pos:R:3:forces:R:3 energy=-1.189720492476562 pbc="F F F"
Lu       0.00000000       0.00000000       0.00000000       0.00000000       0.00000000       0.56607538
Lu       0.00000000       0.00000000       4.68888889       0.00000000       0.00000000      -0.56607538
2
Properties=species:S:1:pos:R:3:forces:R:3 energy=-1.1583980712193742 pbc="F F F"
Lu       0.00000000       0.00000000       0.00000000       0.00000000       0.00000000       0.48741272
Lu       0.00000000       0.00000000       4.74848485       0.00000000       0.00000000      -0.48741272
2
Properties=species:S:1:pos:R:3:forces:R:3 energy=-1.131278464669421 pbc="F F F"
Lu       0.00000000       0.00000000       0.00000000       0.00000000       0.00000000       0.42603302
Lu       0.00000000       0.00000000       4.80808081       0.00000000       0.00000000      -0.42603302
2
Properties=species:S:1:pos:R:3:forces:R:3 energy=-1.1072058639373967 pbc="F F F"
Lu       0.00000000       0.00000000       0.00000000       0.00000000       0.00000000       0.38523564
Lu       0.00000000       0.00000000       4.86767677       0.00000000       0.00000000      -0.38523564
2
Properties=species:S:1:pos:R:3:forces:R:3 energy=-1.0849849178319424 pbc="F F F"
Lu       0.00000000       0.00000000       0.00000000       0.00000000       0.00000000       0.36320052
Lu       0.00000000       0.00000000       4.92727273       0.00000000       0.00000000      -0.36320052
2
Properties=species:S:1:pos:R:3:forces:R:3 energy=-1.063663158673525 pbc="F F F"
Lu       0.00000000       0.00000000       0.00000000       0.00000000       0.00000000       0.35380104
Lu       0.00000000       0.00000000       4.98686869       0.00000000       0.00000000      -0.35380104
2
Properties=species:S:1:pos:R:3:forces:R:3 energy=-1.0427099722839661 pbc="F F F"
Lu       0.00000000       0.00000000       0.00000000       0.00000000       0.00000000       0.34992662
Lu       0.00000000       0.00000000       5.04646465       0.00000000       0.00000000      -0.34992662
2
Properties=species:S:1:pos:R:3:forces:R:3 energy=-1.0218998845883756 pbc="F F F"
Lu       0.00000000       0.00000000       0.00000000       0.00000000       0.00000000       0.34925848
Lu       0.00000000       0.00000000       5.10606061       0.00000000       0.00000000      -0.34925848
2
Properties=species:S:1:pos:R:3:forces:R:3 energy=-1.0008711607101908 pbc="F F F"
Lu       0.00000000       0.00000000       0.00000000       0.00000000       0.00000000       0.35922006
Lu       0.00000000       0.00000000       5.16565657       0.00000000       0.00000000      -0.35922006
2
Properties=species:S:1:pos:R:3:forces:R:3 energy=-0.9786203316569279 pbc="F F F"
Lu       0.00000000       0.00000000       0.00000000       0.00000000       0.00000000       0.39190364
Lu       0.00000000       0.00000000       5.22525253       0.00000000       0.00000000      -0.39190364
2
Properties=species:S:1:pos:R:3:forces:R:3 energy=-0.9537534419850923 pbc="F F F"
Lu       0.00000000       0.00000000       0.00000000       0.00000000       0.00000000       0.44402784
Lu       0.00000000       0.00000000       5.28484848       0.00000000       0.00000000      -0.44402784
2
Properties=species:S:1:pos:R:3:forces:R:3 energy=-0.9259166963231891 pbc="F F F"
Lu       0.00000000       0.00000000       0.00000000       0.00000000       0.00000000       0.48495370
Lu       0.00000000       0.00000000       5.34444444       0.00000000       0.00000000      -0.48495370
2
Properties=species:S:1:pos:R:3:forces:R:3 energy=-0.8968084284466131 pbc="F F F"
Lu       0.00000000       0.00000000       0.00000000       0.00000000       0.00000000       0.48415792
Lu       0.00000000       0.00000000       5.40404040       0.00000000       0.00000000      -0.48415792
2
Properties=species:S:1:pos:R:3:forces:R:3 energy=-0.8688881807132818 pbc="F F F"
Lu       0.00000000       0.00000000       0.00000000       0.00000000       0.00000000       0.45028976
Lu       0.00000000       0.00000000       5.46363636       0.00000000       0.00000000      -0.45028976
2
Properties=species:S:1:pos:R:3:forces:R:3 energy=-0.8428923407037323 pbc="F F F"
Lu       0.00000000       0.00000000       0.00000000       0.00000000       0.00000000       0.42910108
Lu       0.00000000       0.00000000       5.52323232       0.00000000       0.00000000      -0.42910108
2
Properties=species:S:1:pos:R:3:forces:R:3 energy=-0.8166437546855579 pbc="F F F"
Lu       0.00000000       0.00000000       0.00000000       0.00000000       0.00000000       0.46166399
Lu       0.00000000       0.00000000       5.58282828       0.00000000       0.00000000      -0.46166399
2
Properties=species:S:1:pos:R:3:forces:R:3 energy=-0.7870492068046349 pbc="F F F"
Lu       0.00000000       0.00000000       0.00000000       0.00000000       0.00000000       0.53291410
Lu       0.00000000       0.00000000       5.64242424       0.00000000       0.00000000      -0.53291410
2
Properties=species:S:1:pos:R:3:forces:R:3 energy=-0.7538305353836375 pbc="F F F"
Lu       0.00000000       0.00000000       0.00000000       0.00000000       0.00000000       0.56795400
Lu       0.00000000       0.00000000       5.70202020       0.00000000       0.00000000      -0.56795400
2
Properties=species:S:1:pos:R:3:forces:R:3 energy=-0.7213710370974913 pbc="F F F"
Lu       0.00000000       0.00000000       0.00000000       0.00000000       0.00000000       0.50523782
Lu       0.00000000       0.00000000       5.76161616       0.00000000       0.00000000      -0.50523782
2
Properties=species:S:1:pos:R:3:forces:R:3 energy=-0.6953077306313649 pbc="F F F"
Lu       0.00000000       0.00000000       0.00000000       0.00000000       0.00000000       0.35937640
Lu       0.00000000       0.00000000       5.82121212       0.00000000       0.00000000      -0.35937640
2
Properties=species:S:1:pos:R:3:forces:R:3 energy=-0.6789618487490263 pbc="F F F"
Lu       0.00000000       0.00000000       0.00000000       0.00000000       0.00000000       0.19357979
Lu       0.00000000       0.00000000       5.88080808       0.00000000       0.00000000      -0.19357979
2
Properties=species:S:1:pos:R:3:forces:R:3 energy=-0.6713692586590866 pbc="F F F"
Lu       0.00000000       0.00000000       0.00000000       0.00000000       0.00000000       0.06950125
Lu       0.00000000       0.00000000       5.94040404       0.00000000       0.00000000      -0.06950125
2
Properties=species:S:1:pos:R:3:forces:R:3 energy=-0.6690739320982 pbc="F F F"
Lu       0.00000000       0.00000000       0.00000000       0.00000000       0.00000000       0.02315903
Lu       0.00000000       0.00000000       6.00000000       0.00000000       0.00000000      -0.02315903
