2
Properties=species:S:1:pos:R:3:forces:R:3 energy=4119.906625793947 pbc="F F F"
Mg       0.00000000       0.00000000       0.00000000       0.00000000       0.00000000  -84398.85156250
Mg       0.00000000       0.00000000       0.10000000       0.00000000       0.00000000   84398.85156250
2
Properties=species:S:1:pos:R:3:forces:R:3 energy=1447.6392918095712 pbc="F F F"
Mg       0.00000000       0.00000000       0.00000000       0.00000000       0.00000000  -22107.13867188
Mg       0.00000000       0.00000000       0.15959596       0.00000000       0.00000000   22107.13867188
2
Properties=species:S:1:pos:R:3:forces:R:3 energy=638.2512302861338 pbc="F F F"
Mg       0.00000000       0.00000000       0.00000000       0.00000000       0.00000000   -7939.93115234
Mg       0.00000000       0.00000000       0.21919192       0.00000000       0.00000000    7939.93115234
2
Properties=species:S:1:pos:R:3:forces:R:3 energy=322.3920078740244 pbc="F F F"
Mg       0.00000000       0.00000000       0.00000000       0.00000000       0.00000000   -3415.58007812
Mg       0.00000000       0.00000000       0.27878788       0.00000000       0.00000000    3415.58007812
2
Properties=species:S:1:pos:R:3:forces:R:3 energy=178.7183018193369 pbc="F F F"
Mg       0.00000000       0.00000000       0.00000000       0.00000000       0.00000000   -1655.90197754
Mg       0.00000000       0.00000000       0.33838384       0.00000000       0.00000000    1655.90197754
2
Properties=species:S:1:pos:R:3:forces:R:3 energy=106.29371076755505 pbc="F F F"
Mg       0.00000000       0.00000000       0.00000000       0.00000000       0.00000000    -871.69995117
Mg       0.00000000       0.00000000       0.39797980       0.00000000       0.00000000     871.69995117
2
Properties=species:S:1:pos:R:3:forces:R:3 energy=67.1071415726948 pbc="F F F"
Mg       0.00000000       0.00000000       0.00000000       0.00000000       0.00000000    -485.92153931
Mg       0.00000000       0.00000000       0.45757576       0.00000000       0.00000000     485.92153931
2
Properties=species:S:1:pos:R:3:forces:R:3 energy=44.84118092368494 pbc="F F F"
Mg       0.00000000       0.00000000       0.00000000       0.00000000       0.00000000    -281.75329590
Mg       0.00000000       0.00000000       0.51717172       0.00000000       0.00000000     281.75329590
2
Properties=species:S:1:pos:R:3:forces:R:3 energy=31.765270425139725 pbc="F F F"
Mg       0.00000000       0.00000000       0.00000000       0.00000000       0.00000000    -167.62974548
Mg       0.00000000       0.00000000       0.57676768       0.00000000       0.00000000     167.62974548
2
Properties=species:S:1:pos:R:3:forces:R:3 energy=23.924415900741575 pbc="F F F"
Mg       0.00000000       0.00000000       0.00000000       0.00000000       0.00000000    -101.30537415
Mg       0.00000000       0.00000000       0.63636364       0.00000000       0.00000000     101.30537415
2
Properties=species:S:1:pos:R:3:forces:R:3 energy=19.16647961314977 pbc="F F F"
Mg       0.00000000       0.00000000       0.00000000       0.00000000       0.00000000     -61.65271378
Mg       0.00000000       0.00000000       0.69595960       0.00000000       0.00000000      61.65271378
2
Properties=species:S:1:pos:R:3:forces:R:3 energy=16.276766617235893 pbc="F F F"
Mg       0.00000000       0.00000000       0.00000000       0.00000000       0.00000000     -37.23908234
Mg       0.00000000       0.00000000       0.75555556       0.00000000       0.00000000      37.23908234
2
Properties=species:S:1:pos:R:3:forces:R:3 energy=14.546167644678357 pbc="F F F"
Mg       0.00000000       0.00000000       0.00000000       0.00000000       0.00000000     -22.06399536
Mg       0.00000000       0.00000000       0.81515152       0.00000000       0.00000000      22.06399536
2
Properties=species:S:1:pos:R:3:forces:R:3 energy=13.525929395564368 pbc="F F F"
Mg       0.00000000       0.00000000       0.00000000       0.00000000       0.00000000     -13.01541328
Mg       0.00000000       0.00000000       0.87474747       0.00000000       0.00000000      13.01541328
2
Properties=species:S:1:pos:R:3:forces:R:3 energy=12.911623839000079 pbc="F F F"
Mg       0.00000000       0.00000000       0.00000000       0.00000000       0.00000000      -8.16520309
Mg       0.00000000       0.00000000       0.93434343       0.00000000       0.00000000       8.16520309
2
Properties=species:S:1:pos:R:3:forces:R:3 energy=12.499377410339193 pbc="F F F"
Mg       0.00000000       0.00000000       0.00000000       0.00000000       0.00000000      -6.01543570
Mg       0.00000000       0.00000000       0.99393939       0.00000000       0.00000000       6.01543570
2
Properties=species:S:1:pos:R:3:forces:R:3 energy=12.162118836672432 pbc="F F F"
Mg       0.00000000       0.00000000       0.00000000       0.00000000       0.00000000      -5.51907921
Mg       0.00000000       0.00000000       1.05353535       0.00000000       0.00000000       5.51907921
2
Properties=species:S:1:pos:R:3:forces:R:3 energy=11.820412883530649 pbc="F F F"
Mg       0.00000000       0.00000000       0.00000000       0.00000000       0.00000000      -6.09451008
Mg       0.00000000       0.00000000       1.11313131       0.00000000       0.00000000       6.09451008
2
Properties=species:S:1:pos:R:3:forces:R:3 energy=11.421331744754367 pbc="F F F"
Mg       0.00000000       0.00000000       0.00000000       0.00000000       0.00000000      -7.39264154
Mg       0.00000000       0.00000000       1.17272727       0.00000000       0.00000000       7.39264154
2
Properties=species:S:1:pos:R:3:forces:R:3 energy=10.932091110423952 pbc="F F F"
Mg       0.00000000       0.00000000       0.00000000       0.00000000       0.00000000      -9.04772186
Mg       0.00000000       0.00000000       1.23232323       0.00000000       0.00000000       9.04772186
2
Properties=species:S:1:pos:R:3:forces:R:3 energy=10.344440005765762 pbc="F F F"
Mg       0.00000000       0.00000000       0.00000000       0.00000000       0.00000000     -10.63621140
Mg       0.00000000       0.00000000       1.29191919       0.00000000       0.00000000      10.63621140
2
Properties=species:S:1:pos:R:3:forces:R:3 energy=9.669524256934475 pbc="F F F"
Mg       0.00000000       0.00000000       0.00000000       0.00000000       0.00000000     -11.96997452
Mg       0.00000000       0.00000000       1.35151515       0.00000000       0.00000000      11.96997452
2
Properties=species:S:1:pos:R:3:forces:R:3 energy=8.922976778428618 pbc="F F F"
Mg       0.00000000       0.00000000       0.00000000       0.00000000       0.00000000     -13.03608227
Mg       0.00000000       0.00000000       1.41111111       0.00000000       0.00000000      13.03608227
2
Properties=species:S:1:pos:R:3:forces:R:3 energy=8.122476166840558 pbc="F F F"
Mg       0.00000000       0.00000000       0.00000000       0.00000000       0.00000000     -13.75991631
Mg       0.00000000       0.00000000       1.47070707       0.00000000       0.00000000      13.75991631
2
Properties=species:S:1:pos:R:3:forces:R:3 energy=7.292511696564572 pbc="F F F"
Mg       0.00000000       0.00000000       0.00000000       0.00000000       0.00000000     -14.00110054
Mg       0.00000000       0.00000000       1.53030303       0.00000000       0.00000000      14.00110054
2
Properties=species:S:1:pos:R:3:forces:R:3 energy=6.465334228124958 pbc="F F F"
Mg       0.00000000       0.00000000       0.00000000       0.00000000       0.00000000     -13.66126442
Mg       0.00000000       0.00000000       1.58989899       0.00000000       0.00000000      13.66126442
2
Properties=species:S:1:pos:R:3:forces:R:3 energy=5.674397230701582 pbc="F F F"
Mg       0.00000000       0.00000000       0.00000000       0.00000000       0.00000000     -12.81528664
Mg       0.00000000       0.00000000       1.64949495       0.00000000       0.00000000      12.81528664
2
Properties=species:S:1:pos:R:3:forces:R:3 energy=4.942837877584315 pbc="F F F"
Mg       0.00000000       0.00000000       0.00000000       0.00000000       0.00000000     -11.71749592
Mg       0.00000000       0.00000000       1.70909091       0.00000000       0.00000000      11.71749592
2
Properties=species:S:1:pos:R:3:forces:R:3 energy=4.27777454426244 pbc="F F F"
Mg       0.00000000       0.00000000       0.00000000       0.00000000       0.00000000     -10.61361885
Mg       0.00000000       0.00000000       1.76868687       0.00000000       0.00000000      10.61361885
2
Properties=species:S:1:pos:R:3:forces:R:3 energy=3.6758910737269477 pbc="F F F"
Mg       0.00000000       0.00000000       0.00000000       0.00000000       0.00000000      -9.60118675
Mg       0.00000000       0.00000000       1.82828283       0.00000000       0.00000000       9.60118675
2
Properties=species:S:1:pos:R:3:forces:R:3 energy=3.1317651572549075 pbc="F F F"
Mg       0.00000000       0.00000000       0.00000000       0.00000000       0.00000000      -8.67028332
Mg       0.00000000       0.00000000       1.88787879       0.00000000       0.00000000       8.67028332
2
Properties=species:S:1:pos:R:3:forces:R:3 energy=2.641358381598094 pbc="F F F"
Mg       0.00000000       0.00000000       0.00000000       0.00000000       0.00000000      -7.79576969
Mg       0.00000000       0.00000000       1.94747475       0.00000000       0.00000000       7.79576969
2
Properties=species:S:1:pos:R:3:forces:R:3 energy=2.2015877971319835 pbc="F F F"
Mg       0.00000000       0.00000000       0.00000000       0.00000000       0.00000000      -6.97098732
Mg       0.00000000       0.00000000       2.00707071       0.00000000       0.00000000       6.97098732
2
Properties=species:S:1:pos:R:3:forces:R:3 energy=1.8095058494744516 pbc="F F F"
Mg       0.00000000       0.00000000       0.00000000       0.00000000       0.00000000      -6.19491577
Mg       0.00000000       0.00000000       2.06666667       0.00000000       0.00000000       6.19491577
2
Properties=species:S:1:pos:R:3:forces:R:3 energy=1.462290000278104 pbc="F F F"
Mg       0.00000000       0.00000000       0.00000000       0.00000000       0.00000000      -5.46496534
Mg       0.00000000       0.00000000       2.12626263       0.00000000       0.00000000       5.46496534
2
Properties=species:S:1:pos:R:3:forces:R:3 energy=1.1571924657554788 pbc="F F F"
Mg       0.00000000       0.00000000       0.00000000       0.00000000       0.00000000      -4.78213739
Mg       0.00000000       0.00000000       2.18585859       0.00000000       0.00000000       4.78213739
2
Properties=species:S:1:pos:R:3:forces:R:3 energy=0.8912695632425167 pbc="F F F"
Mg       0.00000000       0.00000000       0.00000000       0.00000000       0.00000000      -4.15106249
Mg       0.00000000       0.00000000       2.24545455       0.00000000       0.00000000       4.15106249
2
Properties=species:S:1:pos:R:3:forces:R:3 energy=0.6613296308262091 pbc="F F F"
Mg       0.00000000       0.00000000       0.00000000       0.00000000       0.00000000      -3.57460809
Mg       0.00000000       0.00000000       2.30505051       0.00000000       0.00000000       3.57460809
2
Properties=species:S:1:pos:R:3:forces:R:3 energy=0.46414513001302715 pbc="F F F"
Mg       0.00000000       0.00000000       0.00000000       0.00000000       0.00000000      -3.05140758
Mg       0.00000000       0.00000000       2.36464646       0.00000000       0.00000000       3.05140758
2
Properties=species:S:1:pos:R:3:forces:R:3 energy=0.2966340728881222 pbc="F F F"
Mg       0.00000000       0.00000000       0.00000000       0.00000000       0.00000000      -2.57824326
Mg       0.00000000       0.00000000       2.42424242       0.00000000       0.00000000       2.57824326
2
Properties=species:S:1:pos:R:3:forces:R:3 energy=0.1558788853574402 pbc="F F F"
Mg       0.00000000       0.00000000       0.00000000       0.00000000       0.00000000      -2.15352178
Mg       0.00000000       0.00000000       2.48383838       0.00000000       0.00000000       2.15352178
2
Properties=species:S:1:pos:R:3:forces:R:3 energy=0.038973024575803 pbc="F F F"
Mg       0.00000000       0.00000000       0.00000000       0.00000000       0.00000000      -1.77811229
Mg       0.00000000       0.00000000       2.54343434       0.00000000       0.00000000       1.77811229
2
Properties=species:S:1:pos:R:3:forces:R:3 energy=-0.057066325633409874 pbc="F F F"
Mg       0.00000000       0.00000000       0.00000000       0.00000000       0.00000000      -1.45341837
Mg       0.00000000       0.00000000       2.60303030       0.00000000       0.00000000       1.45341837
2
Properties=species:S:1:pos:R:3:forces:R:3 energy=-0.13525918283192853 pbc="F F F"
Mg       0.00000000       0.00000000       0.00000000       0.00000000       0.00000000      -1.17878032
Mg       0.00000000       0.00000000       2.66262626       0.00000000       0.00000000       1.17878032
2
Properties=species:S:1:pos:R:3:forces:R:3 energy=-0.19848718449581726 pbc="F F F"
Mg       0.00000000       0.00000000       0.00000000       0.00000000       0.00000000      -0.95032650
Mg       0.00000000       0.00000000       2.72222222       0.00000000       0.00000000       0.95032650
2
Properties=species:S:1:pos:R:3:forces:R:3 energy=-0.24932184348767483 pbc="F F F"
Mg       0.00000000       0.00000000       0.00000000       0.00000000       0.00000000      -0.76170504
Mg       0.00000000       0.00000000       2.78181818       0.00000000       0.00000000       0.76170504
2
Properties=species:S:1:pos:R:3:forces:R:3 energy=-0.28992416095536416 pbc="F F F"
Mg       0.00000000       0.00000000       0.00000000       0.00000000       0.00000000      -0.60572410
Mg       0.00000000       0.00000000       2.84141414       0.00000000       0.00000000       0.60572410
2
Properties=species:S:1:pos:R:3:forces:R:3 energy=-0.32203376693688557 pbc="F F F"
Mg       0.00000000       0.00000000       0.00000000       0.00000000       0.00000000      -0.47567457
Mg       0.00000000       0.00000000       2.90101010       0.00000000       0.00000000       0.47567457
2
Properties=species:S:1:pos:R:3:forces:R:3 energy=-0.34702317212152295 pbc="F F F"
Mg       0.00000000       0.00000000       0.00000000       0.00000000       0.00000000      -0.36594120
Mg       0.00000000       0.00000000       2.96060606       0.00000000       0.00000000       0.36594120
2
Properties=species:S:1:pos:R:3:forces:R:3 energy=-0.36596735523694607 pbc="F F F"
Mg       0.00000000       0.00000000       0.00000000       0.00000000       0.00000000      -0.27218109
Mg       0.00000000       0.00000000       3.02020202       0.00000000       0.00000000       0.27218109
2
Properties=species:S:1:pos:R:3:forces:R:3 energy=-0.37972426190344327 pbc="F F F"
Mg       0.00000000       0.00000000       0.00000000       0.00000000       0.00000000      -0.19152999
Mg       0.00000000       0.00000000       3.07979798       0.00000000       0.00000000       0.19152999
2
Properties=species:S:1:pos:R:3:forces:R:3 energy=-0.3890293743259712 pbc="F F F"
Mg       0.00000000       0.00000000       0.00000000       0.00000000       0.00000000      -0.12264487
Mg       0.00000000       0.00000000       3.13939394       0.00000000       0.00000000       0.12264487
2
Properties=species:S:1:pos:R:3:forces:R:3 energy=-0.3945620668809233 pbc="F F F"
Mg       0.00000000       0.00000000       0.00000000       0.00000000       0.00000000      -0.06472500
Mg       0.00000000       0.00000000       3.19898990       0.00000000       0.00000000       0.06472500
2
Properties=species:S:1:pos:R:3:forces:R:3 energy=-0.3969092315697557 pbc="F F F"
Mg       0.00000000       0.00000000       0.00000000       0.00000000       0.00000000      -0.01496333
Mg       0.00000000       0.00000000       3.25858586       0.00000000       0.00000000       0.01496333
2
Properties=species:S:1:pos:R:3:forces:R:3 energy=-0.39638316318225886 pbc="F F F"
Mg       0.00000000       0.00000000       0.00000000       0.00000000       0.00000000       0.03287238
Mg       0.00000000       0.00000000       3.31818182       0.00000000       0.00000000      -0.03287238
2
Properties=species:S:1:pos:R:3:forces:R:3 energy=-0.39292482758284086 pbc="F F F"
Mg       0.00000000       0.00000000       0.00000000       0.00000000       0.00000000       0.08372068
Mg       0.00000000       0.00000000       3.37777778       0.00000000       0.00000000      -0.08372068
2
Properties=species:S:1:pos:R:3:forces:R:3 energy=-0.38639508363299757 pbc="F F F"
Mg       0.00000000       0.00000000       0.00000000       0.00000000       0.00000000       0.13486838
Mg       0.00000000       0.00000000       3.43737374       0.00000000       0.00000000      -0.13486838
2
Properties=species:S:1:pos:R:3:forces:R:3 energy=-0.3769916077158705 pbc="F F F"
Mg       0.00000000       0.00000000       0.00000000       0.00000000       0.00000000       0.17899457
Mg       0.00000000       0.00000000       3.49696970       0.00000000       0.00000000      -0.17899457
2
Properties=species:S:1:pos:R:3:forces:R:3 energy=-0.3652954362409045 pbc="F F F"
Mg       0.00000000       0.00000000       0.00000000       0.00000000       0.00000000       0.21143959
Mg       0.00000000       0.00000000       3.55656566       0.00000000       0.00000000      -0.21143959
2
Properties=species:S:1:pos:R:3:forces:R:3 energy=-0.35202855951529544 pbc="F F F"
Mg       0.00000000       0.00000000       0.00000000       0.00000000       0.00000000       0.23193923
Mg       0.00000000       0.00000000       3.61616162       0.00000000       0.00000000      -0.23193923
2
Properties=species:S:1:pos:R:3:forces:R:3 energy=-0.3378462674790746 pbc="F F F"
Mg       0.00000000       0.00000000       0.00000000       0.00000000       0.00000000       0.24258503
Mg       0.00000000       0.00000000       3.67575758       0.00000000       0.00000000      -0.24258503
2
Properties=species:S:1:pos:R:3:forces:R:3 energy=-0.3232577405356194 pbc="F F F"
Mg       0.00000000       0.00000000       0.00000000       0.00000000       0.00000000       0.24600103
Mg       0.00000000       0.00000000       3.73535354       0.00000000       0.00000000      -0.24600103
2
Properties=species:S:1:pos:R:3:forces:R:3 energy=-0.3086215051590994 pbc="F F F"
Mg       0.00000000       0.00000000       0.00000000       0.00000000       0.00000000       0.24454130
Mg       0.00000000       0.00000000       3.79494949       0.00000000       0.00000000      -0.24454130
2
Properties=species:S:1:pos:R:3:forces:R:3 energy=-0.29416988874405314 pbc="F F F"
Mg       0.00000000       0.00000000       0.00000000       0.00000000       0.00000000       0.24006525
Mg       0.00000000       0.00000000       3.85454545       0.00000000       0.00000000      -0.24006525
2
Properties=species:S:1:pos:R:3:forces:R:3 energy=-0.28004022719467914 pbc="F F F"
Mg       0.00000000       0.00000000       0.00000000       0.00000000       0.00000000       0.23393258
Mg       0.00000000       0.00000000       3.91414141       0.00000000       0.00000000      -0.23393258
2
Properties=species:S:1:pos:R:3:forces:R:3 energy=-0.2663013178072065 pbc="F F F"
Mg       0.00000000       0.00000000       0.00000000       0.00000000       0.00000000       0.22707452
Mg       0.00000000       0.00000000       3.97373737       0.00000000       0.00000000      -0.22707452
2
Properties=species:S:1:pos:R:3:forces:R:3 energy=-0.2529773194193772 pbc="F F F"
Mg       0.00000000       0.00000000       0.00000000       0.00000000       0.00000000       0.22007239
Mg       0.00000000       0.00000000       4.03333333       0.00000000       0.00000000      -0.22007239
2
Properties=species:S:1:pos:R:3:forces:R:3 energy=-0.24006713103213678 pbc="F F F"
Mg       0.00000000       0.00000000       0.00000000       0.00000000       0.00000000       0.21322533
Mg       0.00000000       0.00000000       4.09292929       0.00000000       0.00000000      -0.21322533
2
Properties=species:S:1:pos:R:3:forces:R:3 energy=-0.22755814150991846 pbc="F F F"
Mg       0.00000000       0.00000000       0.00000000       0.00000000       0.00000000       0.20660007
Mg       0.00000000       0.00000000       4.15252525       0.00000000       0.00000000      -0.20660007
2
Properties=species:S:1:pos:R:3:forces:R:3 energy=-0.21543991981819272 pbc="F F F"
Mg       0.00000000       0.00000000       0.00000000       0.00000000       0.00000000       0.20008160
Mg       0.00000000       0.00000000       4.21212121       0.00000000       0.00000000      -0.20008160
2
Properties=species:S:1:pos:R:3:forces:R:3 energy=-0.2037126604421291 pbc="F F F"
Mg       0.00000000       0.00000000       0.00000000       0.00000000       0.00000000       0.19343066
Mg       0.00000000       0.00000000       4.27171717       0.00000000       0.00000000      -0.19343066
2
Properties=species:S:1:pos:R:3:forces:R:3 energy=-0.19239298754792866 pbc="F F F"
Mg       0.00000000       0.00000000       0.00000000       0.00000000       0.00000000       0.18635674
Mg       0.00000000       0.00000000       4.33131313       0.00000000       0.00000000      -0.18635674
2
Properties=species:S:1:pos:R:3:forces:R:3 energy=-0.18151389467023193 pbc="F F F"
Mg       0.00000000       0.00000000       0.00000000       0.00000000       0.00000000       0.17860478
Mg       0.00000000       0.00000000       4.39090909       0.00000000       0.00000000      -0.17860478
2
Properties=species:S:1:pos:R:3:forces:R:3 energy=-0.1711208495273768 pbc="F F F"
Mg       0.00000000       0.00000000       0.00000000       0.00000000       0.00000000       0.17003904
Mg       0.00000000       0.00000000       4.45050505       0.00000000       0.00000000      -0.17003904
2
Properties=species:S:1:pos:R:3:forces:R:3 energy=-0.1612622356874552 pbc="F F F"
Mg       0.00000000       0.00000000       0.00000000       0.00000000       0.00000000       0.16070145
Mg       0.00000000       0.00000000       4.51010101       0.00000000       0.00000000      -0.16070145
2
Properties=species:S:1:pos:R:3:forces:R:3 energy=-0.1519773672389342 pbc="F F F"
Mg       0.00000000       0.00000000       0.00000000       0.00000000       0.00000000       0.15082350
Mg       0.00000000       0.00000000       4.56969697       0.00000000       0.00000000      -0.15082350
2
Properties=species:S:1:pos:R:3:forces:R:3 energy=-0.14328833220984616 pbc="F F F"
Mg       0.00000000       0.00000000       0.00000000       0.00000000       0.00000000       0.14078812
Mg       0.00000000       0.00000000       4.62929293       0.00000000       0.00000000      -0.14078812
2
Properties=species:S:1:pos:R:3:forces:R:3 energy=-0.13519102114873982 pbc="F F F"
Mg       0.00000000       0.00000000       0.00000000       0.00000000       0.00000000       0.13104552
Mg       0.00000000       0.00000000       4.68888889       0.00000000       0.00000000      -0.13104552
2
Properties=species:S:1:pos:R:3:forces:R:3 energy=-0.12765483977287517 pbc="F F F"
Mg       0.00000000       0.00000000       0.00000000       0.00000000       0.00000000       0.12200058
Mg       0.00000000       0.00000000       4.74848485       0.00000000       0.00000000      -0.12200058
2
Properties=species:S:1:pos:R:3:forces:R:3 energy=-0.12063037614661778 pbc="F F F"
Mg       0.00000000       0.00000000       0.00000000       0.00000000       0.00000000       0.11390907
Mg       0.00000000       0.00000000       4.80808081       0.00000000       0.00000000      -0.11390907
2
Properties=species:S:1:pos:R:3:forces:R:3 energy=-0.11405815587460306 pbc="F F F"
Mg       0.00000000       0.00000000       0.00000000       0.00000000       0.00000000       0.10679412
Mg       0.00000000       0.00000000       4.86767677       0.00000000       0.00000000      -0.10679412
2
Properties=species:S:1:pos:R:3:forces:R:3 energy=-0.10788630519845888 pbc="F F F"
Mg       0.00000000       0.00000000       0.00000000       0.00000000       0.00000000       0.10041759
Mg       0.00000000       0.00000000       4.92727273       0.00000000       0.00000000      -0.10041759
2
Properties=species:S:1:pos:R:3:forces:R:3 energy=-0.10208344536797281 pbc="F F F"
Mg       0.00000000       0.00000000       0.00000000       0.00000000       0.00000000       0.09432713
Mg       0.00000000       0.00000000       4.98686869       0.00000000       0.00000000      -0.09432713
2
Properties=species:S:1:pos:R:3:forces:R:3 energy=-0.09664713772371984 pbc="F F F"
Mg       0.00000000       0.00000000       0.00000000       0.00000000       0.00000000       0.08807469
Mg       0.00000000       0.00000000       5.04646465       0.00000000       0.00000000      -0.08807469
2
Properties=species:S:1:pos:R:3:forces:R:3 energy=-0.0915894891753491 pbc="F F F"
Mg       0.00000000       0.00000000       0.00000000       0.00000000       0.00000000       0.08168164
Mg       0.00000000       0.00000000       5.10606061       0.00000000       0.00000000      -0.08168164
2
Properties=species:S:1:pos:R:3:forces:R:3 energy=-0.08689252723211693 pbc="F F F"
Mg       0.00000000       0.00000000       0.00000000       0.00000000       0.00000000       0.07625298
Mg       0.00000000       0.00000000       5.16565657       0.00000000       0.00000000      -0.07625298
2
Properties=species:S:1:pos:R:3:forces:R:3 energy=-0.0824387643170138 pbc="F F F"
Mg       0.00000000       0.00000000       0.00000000       0.00000000       0.00000000       0.07390423
Mg       0.00000000       0.00000000       5.22525253       0.00000000       0.00000000      -0.07390423
2
Properties=species:S:1:pos:R:3:forces:R:3 energy=-0.07799753184454639 pbc="F F F"
Mg       0.00000000       0.00000000       0.00000000       0.00000000       0.00000000       0.07577062
Mg       0.00000000       0.00000000       5.28484848       0.00000000       0.00000000      -0.07577062
2
Properties=species:S:1:pos:R:3:forces:R:3 energy=-0.07337076041310647 pbc="F F F"
Mg       0.00000000       0.00000000       0.00000000       0.00000000       0.00000000       0.07938171
Mg       0.00000000       0.00000000       5.34444444       0.00000000       0.00000000      -0.07938171
2
Properties=species:S:1:pos:R:3:forces:R:3 energy=-0.06859850304429418 pbc="F F F"
Mg       0.00000000       0.00000000       0.00000000       0.00000000       0.00000000       0.07994589
Mg       0.00000000       0.00000000       5.40404040       0.00000000       0.00000000      -0.07994589
2
Properties=species:S:1:pos:R:3:forces:R:3 energy=-0.06393798587569965 pbc="F F F"
Mg       0.00000000       0.00000000       0.00000000       0.00000000       0.00000000       0.07584812
Mg       0.00000000       0.00000000       5.46363636       0.00000000       0.00000000      -0.07584812
2
Properties=species:S:1:pos:R:3:forces:R:3 energy=-0.05957035268915448 pbc="F F F"
Mg       0.00000000       0.00000000       0.00000000       0.00000000       0.00000000       0.07126820
Mg       0.00000000       0.00000000       5.52323232       0.00000000       0.00000000      -0.07126820
2
Properties=species:S:1:pos:R:3:forces:R:3 energy=-0.05532723784081087 pbc="F F F"
Mg       0.00000000       0.00000000       0.00000000       0.00000000       0.00000000       0.07241095
Mg       0.00000000       0.00000000       5.58282828       0.00000000       0.00000000      -0.07241095
2
Properties=species:S:1:pos:R:3:forces:R:3 energy=-0.050800431383455705 pbc="F F F"
Mg       0.00000000       0.00000000       0.00000000       0.00000000       0.00000000       0.08022223
Mg       0.00000000       0.00000000       5.64242424       0.00000000       0.00000000      -0.08022223
2
Properties=species:S:1:pos:R:3:forces:R:3 energy=-0.045784478780492854 pbc="F F F"
Mg       0.00000000       0.00000000       0.00000000       0.00000000       0.00000000       0.08683237
Mg       0.00000000       0.00000000       5.70202020       0.00000000       0.00000000      -0.08683237
2
Properties=species:S:1:pos:R:3:forces:R:3 energy=-0.04068950959527777 pbc="F F F"
Mg       0.00000000       0.00000000       0.00000000       0.00000000       0.00000000       0.08189431
Mg       0.00000000       0.00000000       5.76161616       0.00000000       0.00000000      -0.08189431
2
Properties=species:S:1:pos:R:3:forces:R:3 energy=-0.03630266830323908 pbc="F F F"
Mg       0.00000000       0.00000000       0.00000000       0.00000000       0.00000000       0.06335745
Mg       0.00000000       0.00000000       5.82121212       0.00000000       0.00000000      -0.06335745
2
Properties=species:S:1:pos:R:3:forces:R:3 energy=-0.03326072438237225 pbc="F F F"
Mg       0.00000000       0.00000000       0.00000000       0.00000000       0.00000000       0.03896499
Mg       0.00000000       0.00000000       5.88080808       0.00000000       0.00000000      -0.03896499
2
Properties=species:S:1:pos:R:3:forces:R:3 energy=-0.03155794650615097 pbc="F F F"
Mg       0.00000000       0.00000000       0.00000000       0.00000000       0.00000000       0.01932463
Mg       0.00000000       0.00000000       5.94040404       0.00000000       0.00000000      -0.01932463
2
Properties=species:S:1:pos:R:3:forces:R:3 energy=-0.03071185125206901 pbc="F F F"
Mg       0.00000000       0.00000000       0.00000000       0.00000000       0.00000000       0.01149992
Mg       0.00000000       0.00000000       6.00000000       0.00000000       0.00000000      -0.01149992
