2
Properties=species:S:1:pos:R:3:forces:R:3 energy=13910.109958178648 pbc="F F F"
Mn       0.00000000       0.00000000       0.00000000       0.00000000       0.00000000 -309678.62500000
Mn       0.00000000       0.00000000       0.10000000       0.00000000       0.00000000  309678.62500000
2
Properties=species:S:1:pos:R:3:forces:R:3 energy=4460.5162081786475 pbc="F F F"
Mn       0.00000000       0.00000000       0.00000000       0.00000000       0.00000000  -74013.78125000
Mn       0.00000000       0.00000000       0.15959596       0.00000000       0.00000000   74013.78125000
2
Properties=species:S:1:pos:R:3:forces:R:3 energy=1832.311496264585 pbc="F F F"
Mn       0.00000000       0.00000000       0.00000000       0.00000000       0.00000000  -24784.83398438
Mn       0.00000000       0.00000000       0.21919192       0.00000000       0.00000000   24784.83398438
2
Properties=species:S:1:pos:R:3:forces:R:3 energy=870.3077120848975 pbc="F F F"
Mn       0.00000000       0.00000000       0.00000000       0.00000000       0.00000000  -10081.76757812
Mn       0.00000000       0.00000000       0.27878788       0.00000000       0.00000000   10081.76757812
2
Properties=species:S:1:pos:R:3:forces:R:3 energy=455.87369108880375 pbc="F F F"
Mn       0.00000000       0.00000000       0.00000000       0.00000000       0.00000000   -4637.34130859
Mn       0.00000000       0.00000000       0.33838384       0.00000000       0.00000000    4637.34130859
2
Properties=species:S:1:pos:R:3:forces:R:3 energy=257.84125090959253 pbc="F F F"
Mn       0.00000000       0.00000000       0.00000000       0.00000000       0.00000000   -2312.32104492
Mn       0.00000000       0.00000000       0.39797980       0.00000000       0.00000000    2312.32104492
2
Properties=species:S:1:pos:R:3:forces:R:3 energy=156.48135711710003 pbc="F F F"
Mn       0.00000000       0.00000000       0.00000000       0.00000000       0.00000000   -1218.15771484
Mn       0.00000000       0.00000000       0.45757576       0.00000000       0.00000000    1218.15771484
2
Properties=species:S:1:pos:R:3:forces:R:3 energy=102.11422304186868 pbc="F F F"
Mn       0.00000000       0.00000000       0.00000000       0.00000000       0.00000000    -666.02050781
Mn       0.00000000       0.00000000       0.51717172       0.00000000       0.00000000     666.02050781
2
Properties=species:S:1:pos:R:3:forces:R:3 energy=72.06475407940628 pbc="F F F"
Mn       0.00000000       0.00000000       0.00000000       0.00000000       0.00000000    -371.96566772
Mn       0.00000000       0.00000000       0.57676768       0.00000000       0.00000000     371.96566772
2
Properties=species:S:1:pos:R:3:forces:R:3 energy=55.20100748702503 pbc="F F F"
Mn       0.00000000       0.00000000       0.00000000       0.00000000       0.00000000    -209.73156738
Mn       0.00000000       0.00000000       0.63636364       0.00000000       0.00000000     209.73156738
2
Properties=species:S:1:pos:R:3:forces:R:3 energy=45.64973803813841 pbc="F F F"
Mn       0.00000000       0.00000000       0.00000000       0.00000000       0.00000000    -119.68199921
Mn       0.00000000       0.00000000       0.69595960       0.00000000       0.00000000     119.68199921
2
Properties=species:S:1:pos:R:3:forces:R:3 energy=40.11619934015627 pbc="F F F"
Mn       0.00000000       0.00000000       0.00000000       0.00000000       0.00000000     -71.40089417
Mn       0.00000000       0.00000000       0.75555556       0.00000000       0.00000000      71.40089417
2
Properties=species:S:1:pos:R:3:forces:R:3 energy=36.61504749165138 pbc="F F F"
Mn       0.00000000       0.00000000       0.00000000       0.00000000       0.00000000     -49.73018265
Mn       0.00000000       0.00000000       0.81515152       0.00000000       0.00000000      49.73018265
2
Properties=species:S:1:pos:R:3:forces:R:3 energy=33.81914932024844 pbc="F F F"
Mn       0.00000000       0.00000000       0.00000000       0.00000000       0.00000000     -46.76262283
Mn       0.00000000       0.00000000       0.87474747       0.00000000       0.00000000      46.76262283
2
Properties=species:S:1:pos:R:3:forces:R:3 energy=30.76969406402255 pbc="F F F"
Mn       0.00000000       0.00000000       0.00000000       0.00000000       0.00000000     -57.45167923
Mn       0.00000000       0.00000000       0.93434343       0.00000000       0.00000000      57.45167923
2
Properties=species:S:1:pos:R:3:forces:R:3 energy=26.80496146610173 pbc="F F F"
Mn       0.00000000       0.00000000       0.00000000       0.00000000       0.00000000     -76.43828583
Mn       0.00000000       0.00000000       0.99393939       0.00000000       0.00000000      76.43828583
2
Properties=species:S:1:pos:R:3:forces:R:3 energy=21.64287569838095 pbc="F F F"
Mn       0.00000000       0.00000000       0.00000000       0.00000000       0.00000000     -96.13149261
Mn       0.00000000       0.00000000       1.05353535       0.00000000       0.00000000      96.13149261
2
Properties=species:S:1:pos:R:3:forces:R:3 energy=15.529768976956648 pbc="F F F"
Mn       0.00000000       0.00000000       0.00000000       0.00000000       0.00000000    -106.69247437
Mn       0.00000000       0.00000000       1.11313131       0.00000000       0.00000000     106.69247437
2
Properties=species:S:1:pos:R:3:forces:R:3 energy=9.261122093334677 pbc="F F F"
Mn       0.00000000       0.00000000       0.00000000       0.00000000       0.00000000    -100.68397522
Mn       0.00000000       0.00000000       1.17272727       0.00000000       0.00000000     100.68397522
2
Properties=species:S:1:pos:R:3:forces:R:3 energy=3.8342047539748987 pbc="F F F"
Mn       0.00000000       0.00000000       0.00000000       0.00000000       0.00000000     -79.85140991
Mn       0.00000000       0.00000000       1.23232323       0.00000000       0.00000000      79.85140991
2
Properties=species:S:1:pos:R:3:forces:R:3 energy=-0.23954840053777737 pbc="F F F"
Mn       0.00000000       0.00000000       0.00000000       0.00000000       0.00000000     -57.91141129
Mn       0.00000000       0.00000000       1.29191919       0.00000000       0.00000000      57.91141129
2
Properties=species:S:1:pos:R:3:forces:R:3 energy=-3.227948564035582 pbc="F F F"
Mn       0.00000000       0.00000000       0.00000000       0.00000000       0.00000000     -43.52879715
Mn       0.00000000       0.00000000       1.35151515       0.00000000       0.00000000      43.52879715
2
Properties=species:S:1:pos:R:3:forces:R:3 energy=-5.519419065317494 pbc="F F F"
Mn       0.00000000       0.00000000       0.00000000       0.00000000       0.00000000     -33.82489777
Mn       0.00000000       0.00000000       1.41111111       0.00000000       0.00000000      33.82489777
2
Properties=species:S:1:pos:R:3:forces:R:3 energy=-7.290287464046996 pbc="F F F"
Mn       0.00000000       0.00000000       0.00000000       0.00000000       0.00000000     -25.72350502
Mn       0.00000000       0.00000000       1.47070707       0.00000000       0.00000000      25.72350502
2
Properties=species:S:1:pos:R:3:forces:R:3 energy=-8.592898903054463 pbc="F F F"
Mn       0.00000000       0.00000000       0.00000000       0.00000000       0.00000000     -18.05220604
Mn       0.00000000       0.00000000       1.53030303       0.00000000       0.00000000      18.05220604
2
Properties=species:S:1:pos:R:3:forces:R:3 energy=-9.455697043608406 pbc="F F F"
Mn       0.00000000       0.00000000       0.00000000       0.00000000       0.00000000     -11.07814789
Mn       0.00000000       0.00000000       1.58989899       0.00000000       0.00000000      11.07814789
2
Properties=species:S:1:pos:R:3:forces:R:3 energy=-9.93966211065097 pbc="F F F"
Mn       0.00000000       0.00000000       0.00000000       0.00000000       0.00000000      -5.43275738
Mn       0.00000000       0.00000000       1.64949495       0.00000000       0.00000000       5.43275738
2
Properties=species:S:1:pos:R:3:forces:R:3 energy=-10.1426010283885 pbc="F F F"
Mn       0.00000000       0.00000000       0.00000000       0.00000000       0.00000000      -1.74685204
Mn       0.00000000       0.00000000       1.70909091       0.00000000       0.00000000       1.74685204
2
Properties=species:S:1:pos:R:3:forces:R:3 energy=-10.18841733745419 pbc="F F F"
Mn       0.00000000       0.00000000       0.00000000       0.00000000       0.00000000      -0.07033686
Mn       0.00000000       0.00000000       1.76868687       0.00000000       0.00000000       0.07033686
2
Properties=species:S:1:pos:R:3:forces:R:3 energy=-10.176431249797524 pbc="F F F"
Mn       0.00000000       0.00000000       0.00000000       0.00000000       0.00000000       0.31389320
Mn       0.00000000       0.00000000       1.82828283       0.00000000       0.00000000      -0.31389320
2
Properties=species:S:1:pos:R:3:forces:R:3 energy=-10.165382221360774 pbc="F F F"
Mn       0.00000000       0.00000000       0.00000000       0.00000000       0.00000000      -0.03228860
Mn       0.00000000       0.00000000       1.88787879       0.00000000       0.00000000       0.03228860
2
Properties=species:S:1:pos:R:3:forces:R:3 energy=-10.18758029068146 pbc="F F F"
Mn       0.00000000       0.00000000       0.00000000       0.00000000       0.00000000      -0.74629676
Mn       0.00000000       0.00000000       1.94747475       0.00000000       0.00000000       0.74629676
2
Properties=species:S:1:pos:R:3:forces:R:3 energy=-10.25525300622356 pbc="F F F"
Mn       0.00000000       0.00000000       0.00000000       0.00000000       0.00000000      -1.50923240
Mn       0.00000000       0.00000000       2.00707071       0.00000000       0.00000000       1.50923240
2
Properties=species:S:1:pos:R:3:forces:R:3 energy=-10.363595235339988 pbc="F F F"
Mn       0.00000000       0.00000000       0.00000000       0.00000000       0.00000000      -2.08209205
Mn       0.00000000       0.00000000       2.06666667       0.00000000       0.00000000       2.08209205
2
Properties=species:S:1:pos:R:3:forces:R:3 energy=-10.497458428685473 pbc="F F F"
Mn       0.00000000       0.00000000       0.00000000       0.00000000       0.00000000      -2.35880208
Mn       0.00000000       0.00000000       2.12626263       0.00000000       0.00000000       2.35880208
2
Properties=species:S:1:pos:R:3:forces:R:3 energy=-10.639032934873628 pbc="F F F"
Mn       0.00000000       0.00000000       0.00000000       0.00000000       0.00000000      -2.35034990
Mn       0.00000000       0.00000000       2.18585859       0.00000000       0.00000000       2.35034990
2
Properties=species:S:1:pos:R:3:forces:R:3 energy=-10.773550157000436 pbc="F F F"
Mn       0.00000000       0.00000000       0.00000000       0.00000000       0.00000000      -2.13840270
Mn       0.00000000       0.00000000       2.24545455       0.00000000       0.00000000       2.13840270
2
Properties=species:S:1:pos:R:3:forces:R:3 energy=-10.891832744261395 pbc="F F F"
Mn       0.00000000       0.00000000       0.00000000       0.00000000       0.00000000      -1.82100320
Mn       0.00000000       0.00000000       2.30505051       0.00000000       0.00000000       1.82100320
2
Properties=species:S:1:pos:R:3:forces:R:3 energy=-10.990121282609305 pbc="F F F"
Mn       0.00000000       0.00000000       0.00000000       0.00000000       0.00000000      -1.47872543
Mn       0.00000000       0.00000000       2.36464646       0.00000000       0.00000000       1.47872543
2
Properties=species:S:1:pos:R:3:forces:R:3 energy=-11.068719295905822 pbc="F F F"
Mn       0.00000000       0.00000000       0.00000000       0.00000000       0.00000000      -1.16759861
Mn       0.00000000       0.00000000       2.42424242       0.00000000       0.00000000       1.16759861
2
Properties=species:S:1:pos:R:3:forces:R:3 energy=-11.130603212034629 pbc="F F F"
Mn       0.00000000       0.00000000       0.00000000       0.00000000       0.00000000      -0.92202914
Mn       0.00000000       0.00000000       2.48383838       0.00000000       0.00000000       0.92202914
2
Properties=species:S:1:pos:R:3:forces:R:3 energy=-11.180255829693786 pbc="F F F"
Mn       0.00000000       0.00000000       0.00000000       0.00000000       0.00000000      -0.75814176
Mn       0.00000000       0.00000000       2.54343434       0.00000000       0.00000000       0.75814176
2
Properties=species:S:1:pos:R:3:forces:R:3 energy=-11.222349632323725 pbc="F F F"
Mn       0.00000000       0.00000000       0.00000000       0.00000000       0.00000000      -0.66106236
Mn       0.00000000       0.00000000       2.60303030       0.00000000       0.00000000       0.66106236
2
Properties=species:S:1:pos:R:3:forces:R:3 energy=-11.25868303482761 pbc="F F F"
Mn       0.00000000       0.00000000       0.00000000       0.00000000       0.00000000      -0.54474282
Mn       0.00000000       0.00000000       2.66262626       0.00000000       0.00000000       0.54474282
2
Properties=species:S:1:pos:R:3:forces:R:3 energy=-11.285234054951728 pbc="F F F"
Mn       0.00000000       0.00000000       0.00000000       0.00000000       0.00000000      -0.33337915
Mn       0.00000000       0.00000000       2.72222222       0.00000000       0.00000000       0.33337915
2
Properties=species:S:1:pos:R:3:forces:R:3 energy=-11.29814142425746 pbc="F F F"
Mn       0.00000000       0.00000000       0.00000000       0.00000000       0.00000000      -0.10642406
Mn       0.00000000       0.00000000       2.78181818       0.00000000       0.00000000       0.10642406
2
Properties=species:S:1:pos:R:3:forces:R:3 energy=-11.299079400022602 pbc="F F F"
Mn       0.00000000       0.00000000       0.00000000       0.00000000       0.00000000       0.06507160
Mn       0.00000000       0.00000000       2.84141414       0.00000000       0.00000000      -0.06507160
2
Properties=species:S:1:pos:R:3:forces:R:3 energy=-11.291389575574472 pbc="F F F"
Mn       0.00000000       0.00000000       0.00000000       0.00000000       0.00000000       0.18596528
Mn       0.00000000       0.00000000       2.90101010       0.00000000       0.00000000      -0.18596528
2
Properties=species:S:1:pos:R:3:forces:R:3 energy=-11.27764845119827 pbc="F F F"
Mn       0.00000000       0.00000000       0.00000000       0.00000000       0.00000000       0.26959753
Mn       0.00000000       0.00000000       2.96060606       0.00000000       0.00000000      -0.26959753
2
Properties=species:S:1:pos:R:3:forces:R:3 energy=-11.25987738914918 pbc="F F F"
Mn       0.00000000       0.00000000       0.00000000       0.00000000       0.00000000       0.32192418
Mn       0.00000000       0.00000000       3.02020202       0.00000000       0.00000000      -0.32192418
2
Properties=species:S:1:pos:R:3:forces:R:3 energy=-11.239799051135059 pbc="F F F"
Mn       0.00000000       0.00000000       0.00000000       0.00000000       0.00000000       0.34811074
Mn       0.00000000       0.00000000       3.07979798       0.00000000       0.00000000      -0.34811074
2
Properties=species:S:1:pos:R:3:forces:R:3 energy=-11.21875824965342 pbc="F F F"
Mn       0.00000000       0.00000000       0.00000000       0.00000000       0.00000000       0.35558531
Mn       0.00000000       0.00000000       3.13939394       0.00000000       0.00000000      -0.35558531
2
Properties=species:S:1:pos:R:3:forces:R:3 energy=-11.197614341387787 pbc="F F F"
Mn       0.00000000       0.00000000       0.00000000       0.00000000       0.00000000       0.35299301
Mn       0.00000000       0.00000000       3.19898990       0.00000000       0.00000000      -0.35299301
2
Properties=species:S:1:pos:R:3:forces:R:3 energy=-11.17673163594297 pbc="F F F"
Mn       0.00000000       0.00000000       0.00000000       0.00000000       0.00000000       0.34792590
Mn       0.00000000       0.00000000       3.25858586       0.00000000       0.00000000      -0.34792590
2
Properties=species:S:1:pos:R:3:forces:R:3 energy=-11.156093430003004 pbc="F F F"
Mn       0.00000000       0.00000000       0.00000000       0.00000000       0.00000000       0.34534174
Mn       0.00000000       0.00000000       3.31818182       0.00000000       0.00000000      -0.34534174
2
Properties=species:S:1:pos:R:3:forces:R:3 energy=-11.135477768189668 pbc="F F F"
Mn       0.00000000       0.00000000       0.00000000       0.00000000       0.00000000       0.34729105
Mn       0.00000000       0.00000000       3.37777778       0.00000000       0.00000000      -0.34729105
2
Properties=species:S:1:pos:R:3:forces:R:3 energy=-11.114611133355211 pbc="F F F"
Mn       0.00000000       0.00000000       0.00000000       0.00000000       0.00000000       0.35363993
Mn       0.00000000       0.00000000       3.43737374       0.00000000       0.00000000      -0.35363993
2
Properties=species:S:1:pos:R:3:forces:R:3 energy=-11.093265059127944 pbc="F F F"
Mn       0.00000000       0.00000000       0.00000000       0.00000000       0.00000000       0.36311302
Mn       0.00000000       0.00000000       3.49696970       0.00000000       0.00000000      -0.36311302
2
Properties=species:S:1:pos:R:3:forces:R:3 energy=-11.071302121691343 pbc="F F F"
Mn       0.00000000       0.00000000       0.00000000       0.00000000       0.00000000       0.37404922
Mn       0.00000000       0.00000000       3.55656566       0.00000000       0.00000000      -0.37404922
2
Properties=species:S:1:pos:R:3:forces:R:3 energy=-11.048686696298576 pbc="F F F"
Mn       0.00000000       0.00000000       0.00000000       0.00000000       0.00000000       0.38473552
Mn       0.00000000       0.00000000       3.61616162       0.00000000       0.00000000      -0.38473552
2
Properties=species:S:1:pos:R:3:forces:R:3 energy=-11.02548399726256 pbc="F F F"
Mn       0.00000000       0.00000000       0.00000000       0.00000000       0.00000000       0.39346826
Mn       0.00000000       0.00000000       3.67575758       0.00000000       0.00000000      -0.39346826
2
Properties=species:S:1:pos:R:3:forces:R:3 energy=-11.001859333357892 pbc="F F F"
Mn       0.00000000       0.00000000       0.00000000       0.00000000       0.00000000       0.39860293
Mn       0.00000000       0.00000000       3.73535354       0.00000000       0.00000000      -0.39860293
2
Properties=species:S:1:pos:R:3:forces:R:3 energy=-10.978073415477 pbc="F F F"
Mn       0.00000000       0.00000000       0.00000000       0.00000000       0.00000000       0.39873275
Mn       0.00000000       0.00000000       3.79494949       0.00000000       0.00000000      -0.39873275
2
Properties=species:S:1:pos:R:3:forces:R:3 energy=-10.954451851723318 pbc="F F F"
Mn       0.00000000       0.00000000       0.00000000       0.00000000       0.00000000       0.39295074
Mn       0.00000000       0.00000000       3.85454545       0.00000000       0.00000000      -0.39295074
2
Properties=species:S:1:pos:R:3:forces:R:3 energy=-10.931357630240273 pbc="F F F"
Mn       0.00000000       0.00000000       0.00000000       0.00000000       0.00000000       0.38107809
Mn       0.00000000       0.00000000       3.91414141       0.00000000       0.00000000      -0.38107809
2
Properties=species:S:1:pos:R:3:forces:R:3 energy=-10.909139570113043 pbc="F F F"
Mn       0.00000000       0.00000000       0.00000000       0.00000000       0.00000000       0.36374116
Mn       0.00000000       0.00000000       3.97373737       0.00000000       0.00000000      -0.36374116
2
Properties=species:S:1:pos:R:3:forces:R:3 energy=-10.88808564201222 pbc="F F F"
Mn       0.00000000       0.00000000       0.00000000       0.00000000       0.00000000       0.34226120
Mn       0.00000000       0.00000000       4.03333333       0.00000000       0.00000000      -0.34226120
2
Properties=species:S:1:pos:R:3:forces:R:3 energy=-10.868392349245367 pbc="F F F"
Mn       0.00000000       0.00000000       0.00000000       0.00000000       0.00000000       0.31837681
Mn       0.00000000       0.00000000       4.09292929       0.00000000       0.00000000      -0.31837681
2
Properties=species:S:1:pos:R:3:forces:R:3 energy=-10.85014848361542 pbc="F F F"
Mn       0.00000000       0.00000000       0.00000000       0.00000000       0.00000000       0.29391059
Mn       0.00000000       0.00000000       4.15252525       0.00000000       0.00000000      -0.29391059
2
Properties=species:S:1:pos:R:3:forces:R:3 energy=-10.83334073342499 pbc="F F F"
Mn       0.00000000       0.00000000       0.00000000       0.00000000       0.00000000       0.27044436
Mn       0.00000000       0.00000000       4.21212121       0.00000000       0.00000000      -0.27044436
2
Properties=species:S:1:pos:R:3:forces:R:3 energy=-10.817871594212106 pbc="F F F"
Mn       0.00000000       0.00000000       0.00000000       0.00000000       0.00000000       0.24910019
Mn       0.00000000       0.00000000       4.27171717       0.00000000       0.00000000      -0.24910019
2
Properties=species:S:1:pos:R:3:forces:R:3 energy=-10.803595583031674 pbc="F F F"
Mn       0.00000000       0.00000000       0.00000000       0.00000000       0.00000000       0.23046514
Mn       0.00000000       0.00000000       4.33131313       0.00000000       0.00000000      -0.23046514
2
Properties=species:S:1:pos:R:3:forces:R:3 energy=-10.790346559221495 pbc="F F F"
Mn       0.00000000       0.00000000       0.00000000       0.00000000       0.00000000       0.21463166
Mn       0.00000000       0.00000000       4.39090909       0.00000000       0.00000000      -0.21463166
2
Properties=species:S:1:pos:R:3:forces:R:3 energy=-10.777962399557254 pbc="F F F"
Mn       0.00000000       0.00000000       0.00000000       0.00000000       0.00000000       0.20132583
Mn       0.00000000       0.00000000       4.45050505       0.00000000       0.00000000      -0.20132583
2
Properties=species:S:1:pos:R:3:forces:R:3 energy=-10.766309610051058 pbc="F F F"
Mn       0.00000000       0.00000000       0.00000000       0.00000000       0.00000000       0.19005018
Mn       0.00000000       0.00000000       4.51010101       0.00000000       0.00000000      -0.19005018
2
Properties=species:S:1:pos:R:3:forces:R:3 energy=-10.755282030152337 pbc="F F F"
Mn       0.00000000       0.00000000       0.00000000       0.00000000       0.00000000       0.18020102
Mn       0.00000000       0.00000000       4.56969697       0.00000000       0.00000000      -0.18020102
2
Properties=species:S:1:pos:R:3:forces:R:3 energy=-10.744815194883376 pbc="F F F"
Mn       0.00000000       0.00000000       0.00000000       0.00000000       0.00000000       0.17114475
Mn       0.00000000       0.00000000       4.62929293       0.00000000       0.00000000      -0.17114475
2
Properties=species:S:1:pos:R:3:forces:R:3 energy=-10.734880207312191 pbc="F F F"
Mn       0.00000000       0.00000000       0.00000000       0.00000000       0.00000000       0.16225749
Mn       0.00000000       0.00000000       4.68888889       0.00000000       0.00000000      -0.16225749
2
Properties=species:S:1:pos:R:3:forces:R:3 energy=-10.72548378606986 pbc="F F F"
Mn       0.00000000       0.00000000       0.00000000       0.00000000       0.00000000       0.15295322
Mn       0.00000000       0.00000000       4.74848485       0.00000000       0.00000000      -0.15295322
2
Properties=species:S:1:pos:R:3:forces:R:3 energy=-10.716666988558343 pbc="F F F"
Mn       0.00000000       0.00000000       0.00000000       0.00000000       0.00000000       0.14274929
Mn       0.00000000       0.00000000       4.80808081       0.00000000       0.00000000      -0.14274929
2
Properties=species:S:1:pos:R:3:forces:R:3 energy=-10.708493000085877 pbc="F F F"
Mn       0.00000000       0.00000000       0.00000000       0.00000000       0.00000000       0.13136086
Mn       0.00000000       0.00000000       4.86767677       0.00000000       0.00000000      -0.13136086
2
Properties=species:S:1:pos:R:3:forces:R:3 energy=-10.701032578494285 pbc="F F F"
Mn       0.00000000       0.00000000       0.00000000       0.00000000       0.00000000       0.11882735
Mn       0.00000000       0.00000000       4.92727273       0.00000000       0.00000000      -0.11882735
2
Properties=species:S:1:pos:R:3:forces:R:3 energy=-10.694344077683482 pbc="F F F"
Mn       0.00000000       0.00000000       0.00000000       0.00000000       0.00000000       0.10558765
Mn       0.00000000       0.00000000       4.98686869       0.00000000       0.00000000      -0.10558765
2
Properties=species:S:1:pos:R:3:forces:R:3 energy=-10.68844679858359 pbc="F F F"
Mn       0.00000000       0.00000000       0.00000000       0.00000000       0.00000000       0.09238406
Mn       0.00000000       0.00000000       5.04646465       0.00000000       0.00000000      -0.09238406
2
Properties=species:S:1:pos:R:3:forces:R:3 energy=-10.683318970932534 pbc="F F F"
Mn       0.00000000       0.00000000       0.00000000       0.00000000       0.00000000       0.07985966
Mn       0.00000000       0.00000000       5.10606061       0.00000000       0.00000000      -0.07985966
2
Properties=species:S:1:pos:R:3:forces:R:3 energy=-10.678914181151326 pbc="F F F"
Mn       0.00000000       0.00000000       0.00000000       0.00000000       0.00000000       0.06801123
Mn       0.00000000       0.00000000       5.16565657       0.00000000       0.00000000      -0.06801123
2
Properties=species:S:1:pos:R:3:forces:R:3 energy=-10.675210953905047 pbc="F F F"
Mn       0.00000000       0.00000000       0.00000000       0.00000000       0.00000000       0.05621030
Mn       0.00000000       0.00000000       5.22525253       0.00000000       0.00000000      -0.05621030
2
Properties=species:S:1:pos:R:3:forces:R:3 energy=-10.672215641636207 pbc="F F F"
Mn       0.00000000       0.00000000       0.00000000       0.00000000       0.00000000       0.04439106
Mn       0.00000000       0.00000000       5.28484848       0.00000000       0.00000000      -0.04439106
2
Properties=species:S:1:pos:R:3:forces:R:3 energy=-10.66989105738211 pbc="F F F"
Mn       0.00000000       0.00000000       0.00000000       0.00000000       0.00000000       0.03405198
Mn       0.00000000       0.00000000       5.34444444       0.00000000       0.00000000      -0.03405198
2
Properties=species:S:1:pos:R:3:forces:R:3 energy=-10.6680926419521 pbc="F F F"
Mn       0.00000000       0.00000000       0.00000000       0.00000000       0.00000000       0.02688382
Mn       0.00000000       0.00000000       5.40404040       0.00000000       0.00000000      -0.02688382
2
Properties=species:S:1:pos:R:3:forces:R:3 energy=-10.666630482852444 pbc="F F F"
Mn       0.00000000       0.00000000       0.00000000       0.00000000       0.00000000       0.02247537
Mn       0.00000000       0.00000000       5.46363636       0.00000000       0.00000000      -0.02247537
2
Properties=species:S:1:pos:R:3:forces:R:3 energy=-10.665411549559737 pbc="F F F"
Mn       0.00000000       0.00000000       0.00000000       0.00000000       0.00000000       0.01817200
Mn       0.00000000       0.00000000       5.52323232       0.00000000       0.00000000      -0.01817200
2
Properties=species:S:1:pos:R:3:forces:R:3 energy=-10.66452368972065 pbc="F F F"
Mn       0.00000000       0.00000000       0.00000000       0.00000000       0.00000000       0.01094157
Mn       0.00000000       0.00000000       5.58282828       0.00000000       0.00000000      -0.01094157
2
Properties=species:S:1:pos:R:3:forces:R:3 energy=-10.664180317625496 pbc="F F F"
Mn       0.00000000       0.00000000       0.00000000       0.00000000       0.00000000       0.00018399
Mn       0.00000000       0.00000000       5.64242424       0.00000000       0.00000000      -0.00018399
2
Properties=species:S:1:pos:R:3:forces:R:3 energy=-10.66449644646369 pbc="F F F"
Mn       0.00000000       0.00000000       0.00000000       0.00000000       0.00000000      -0.01014199
Mn       0.00000000       0.00000000       5.70202020       0.00000000       0.00000000       0.01014199
2
Properties=species:S:1:pos:R:3:forces:R:3 energy=-10.665250290335498 pbc="F F F"
Mn       0.00000000       0.00000000       0.00000000       0.00000000       0.00000000      -0.01369526
Mn       0.00000000       0.00000000       5.76161616       0.00000000       0.00000000       0.01369526
2
Properties=species:S:1:pos:R:3:forces:R:3 energy=-10.665944318415207 pbc="F F F"
Mn       0.00000000       0.00000000       0.00000000       0.00000000       0.00000000      -0.00824240
Mn       0.00000000       0.00000000       5.82121212       0.00000000       0.00000000       0.00824240
2
Properties=species:S:1:pos:R:3:forces:R:3 energy=-10.666131514521565 pbc="F F F"
Mn       0.00000000       0.00000000       0.00000000       0.00000000       0.00000000       0.00209175
Mn       0.00000000       0.00000000       5.88080808       0.00000000       0.00000000      -0.00209175
2
Properties=species:S:1:pos:R:3:forces:R:3 energy=-10.665730069051353 pbc="F F F"
Mn       0.00000000       0.00000000       0.00000000       0.00000000       0.00000000       0.01083761
Mn       0.00000000       0.00000000       5.94040404       0.00000000       0.00000000      -0.01083761
2
Properties=species:S:1:pos:R:3:forces:R:3 energy=-10.664961459840896 pbc="F F F"
Mn       0.00000000       0.00000000       0.00000000       0.00000000       0.00000000       0.01369574
Mn       0.00000000       0.00000000       6.00000000       0.00000000       0.00000000      -0.01369574
