2
Properties=species:S:1:pos:R:3:forces:R:3 energy=32066.973863125822 pbc="F F F"
Mo       0.00000000       0.00000000       0.00000000       0.00000000       0.00000000 -757924.00000000
Mo       0.00000000       0.00000000       0.10000000       0.00000000       0.00000000  757924.00000000
2
Properties=species:S:1:pos:R:3:forces:R:3 energy=9591.09202718832 pbc="F F F"
Mo       0.00000000       0.00000000       0.00000000       0.00000000       0.00000000 -168882.78125000
Mo       0.00000000       0.00000000       0.15959596       0.00000000       0.00000000  168882.78125000
2
Properties=species:S:1:pos:R:3:forces:R:3 energy=3723.227525235196 pbc="F F F"
Mo       0.00000000       0.00000000       0.00000000       0.00000000       0.00000000  -53754.14843750
Mo       0.00000000       0.00000000       0.21919192       0.00000000       0.00000000   53754.14843750
2
Properties=species:S:1:pos:R:3:forces:R:3 energy=1676.1619734773838 pbc="F F F"
Mo       0.00000000       0.00000000       0.00000000       0.00000000       0.00000000  -20907.97265625
Mo       0.00000000       0.00000000       0.27878788       0.00000000       0.00000000   20907.97265625
2
Properties=species:S:1:pos:R:3:forces:R:3 energy=833.5625472141882 pbc="F F F"
Mo       0.00000000       0.00000000       0.00000000       0.00000000       0.00000000   -9183.81152344
Mo       0.00000000       0.00000000       0.33838384       0.00000000       0.00000000    9183.81152344
2
Properties=species:S:1:pos:R:3:forces:R:3 energy=449.4709334509925 pbc="F F F"
Mo       0.00000000       0.00000000       0.00000000       0.00000000       0.00000000   -4367.57861328
Mo       0.00000000       0.00000000       0.39797980       0.00000000       0.00000000    4367.57861328
2
Properties=species:S:1:pos:R:3:forces:R:3 energy=261.92607262382006 pbc="F F F"
Mo       0.00000000       0.00000000       0.00000000       0.00000000       0.00000000   -2197.96875000
Mo       0.00000000       0.00000000       0.45757576       0.00000000       0.00000000    2197.96875000
2
Properties=species:S:1:pos:R:3:forces:R:3 energy=165.68901210228762 pbc="F F F"
Mo       0.00000000       0.00000000       0.00000000       0.00000000       0.00000000   -1152.35754395
Mo       0.00000000       0.00000000       0.51717172       0.00000000       0.00000000    1152.35754395
2
Properties=species:S:1:pos:R:3:forces:R:3 energy=114.62771759097308 pbc="F F F"
Mo       0.00000000       0.00000000       0.00000000       0.00000000       0.00000000    -617.84539795
Mo       0.00000000       0.00000000       0.57676768       0.00000000       0.00000000     617.84539795
2
Properties=species:S:1:pos:R:3:forces:R:3 energy=87.26561134375862 pbc="F F F"
Mo       0.00000000       0.00000000       0.00000000       0.00000000       0.00000000    -328.55584717
Mo       0.00000000       0.00000000       0.63636364       0.00000000       0.00000000     328.55584717
2
Properties=species:S:1:pos:R:3:forces:R:3 energy=72.98478108717073 pbc="F F F"
Mo       0.00000000       0.00000000       0.00000000       0.00000000       0.00000000    -166.17324829
Mo       0.00000000       0.00000000       0.69595960       0.00000000       0.00000000     166.17324829
2
Properties=species:S:1:pos:R:3:forces:R:3 energy=66.04329111023586 pbc="F F F"
Mo       0.00000000       0.00000000       0.00000000       0.00000000       0.00000000     -75.70180511
Mo       0.00000000       0.00000000       0.75555556       0.00000000       0.00000000      75.70180511
2
Properties=species:S:1:pos:R:3:forces:R:3 energy=63.15758354011524 pbc="F F F"
Mo       0.00000000       0.00000000       0.00000000       0.00000000       0.00000000     -26.26077271
Mo       0.00000000       0.00000000       0.81515152       0.00000000       0.00000000      26.26077271
2
Properties=species:S:1:pos:R:3:forces:R:3 energy=62.40855289137323 pbc="F F F"
Mo       0.00000000       0.00000000       0.00000000       0.00000000       0.00000000      -2.55667377
Mo       0.00000000       0.00000000       0.87474747       0.00000000       0.00000000       2.55667377
2
Properties=species:S:1:pos:R:3:forces:R:3 energy=62.448409437619404 pbc="F F F"
Mo       0.00000000       0.00000000       0.00000000       0.00000000       0.00000000       0.69170398
Mo       0.00000000       0.00000000       0.93434343       0.00000000       0.00000000      -0.69170398
2
Properties=species:S:1:pos:R:3:forces:R:3 energy=62.12482474466361 pbc="F F F"
Mo       0.00000000       0.00000000       0.00000000       0.00000000       0.00000000     -14.45425415
Mo       0.00000000       0.00000000       0.99393939       0.00000000       0.00000000      14.45425415
2
Properties=species:S:1:pos:R:3:forces:R:3 energy=60.42080057851103 pbc="F F F"
Mo       0.00000000       0.00000000       0.00000000       0.00000000       0.00000000     -44.78384399
Mo       0.00000000       0.00000000       1.05353535       0.00000000       0.00000000      44.78384399
2
Properties=species:S:1:pos:R:3:forces:R:3 energy=56.620760862321326 pbc="F F F"
Mo       0.00000000       0.00000000       0.00000000       0.00000000       0.00000000     -83.44744873
Mo       0.00000000       0.00000000       1.11313131       0.00000000       0.00000000      83.44744873
2
Properties=species:S:1:pos:R:3:forces:R:3 energy=50.474972713602114 pbc="F F F"
Mo       0.00000000       0.00000000       0.00000000       0.00000000       0.00000000    -122.06047058
Mo       0.00000000       0.00000000       1.17272727       0.00000000       0.00000000     122.06047058
2
Properties=species:S:1:pos:R:3:forces:R:3 energy=42.252429624080534 pbc="F F F"
Mo       0.00000000       0.00000000       0.00000000       0.00000000       0.00000000    -151.61320496
Mo       0.00000000       0.00000000       1.23232323       0.00000000       0.00000000     151.61320496
2
Properties=species:S:1:pos:R:3:forces:R:3 energy=32.75109392186147 pbc="F F F"
Mo       0.00000000       0.00000000       0.00000000       0.00000000       0.00000000    -163.88163757
Mo       0.00000000       0.00000000       1.29191919       0.00000000       0.00000000     163.88163757
2
Properties=species:S:1:pos:R:3:forces:R:3 energy=23.112960247990024 pbc="F F F"
Mo       0.00000000       0.00000000       0.00000000       0.00000000       0.00000000    -156.73124695
Mo       0.00000000       0.00000000       1.35151515       0.00000000       0.00000000     156.73124695
2
Properties=species:S:1:pos:R:3:forces:R:3 energy=14.304565289104579 pbc="F F F"
Mo       0.00000000       0.00000000       0.00000000       0.00000000       0.00000000    -137.77864075
Mo       0.00000000       0.00000000       1.41111111       0.00000000       0.00000000     137.77864075
2
Properties=species:S:1:pos:R:3:forces:R:3 energy=6.74993958991469 pbc="F F F"
Mo       0.00000000       0.00000000       0.00000000       0.00000000       0.00000000    -115.60225677
Mo       0.00000000       0.00000000       1.47070707       0.00000000       0.00000000     115.60225677
2
Properties=species:S:1:pos:R:3:forces:R:3 energy=0.5405703220220087 pbc="F F F"
Mo       0.00000000       0.00000000       0.00000000       0.00000000       0.00000000     -92.55019379
Mo       0.00000000       0.00000000       1.53030303       0.00000000       0.00000000      92.55019379
2
Properties=species:S:1:pos:R:3:forces:R:3 energy=-4.248214356239489 pbc="F F F"
Mo       0.00000000       0.00000000       0.00000000       0.00000000       0.00000000     -68.03157043
Mo       0.00000000       0.00000000       1.58989899       0.00000000       0.00000000      68.03157043
2
Properties=species:S:1:pos:R:3:forces:R:3 energy=-7.605821196953753 pbc="F F F"
Mo       0.00000000       0.00000000       0.00000000       0.00000000       0.00000000     -45.43755722
Mo       0.00000000       0.00000000       1.64949495       0.00000000       0.00000000      45.43755722
2
Properties=species:S:1:pos:R:3:forces:R:3 energy=-9.78867045132426 pbc="F F F"
Mo       0.00000000       0.00000000       0.00000000       0.00000000       0.00000000     -28.90743256
Mo       0.00000000       0.00000000       1.70909091       0.00000000       0.00000000      28.90743256
2
Properties=species:S:1:pos:R:3:forces:R:3 energy=-11.16291302771807 pbc="F F F"
Mo       0.00000000       0.00000000       0.00000000       0.00000000       0.00000000     -17.96377182
Mo       0.00000000       0.00000000       1.76868687       0.00000000       0.00000000      17.96377182
2
Properties=species:S:1:pos:R:3:forces:R:3 energy=-12.001425762335634 pbc="F F F"
Mo       0.00000000       0.00000000       0.00000000       0.00000000       0.00000000     -10.65537834
Mo       0.00000000       0.00000000       1.82828283       0.00000000       0.00000000      10.65537834
2
Properties=species:S:1:pos:R:3:forces:R:3 energy=-12.479040593750895 pbc="F F F"
Mo       0.00000000       0.00000000       0.00000000       0.00000000       0.00000000      -5.67993546
Mo       0.00000000       0.00000000       1.88787879       0.00000000       0.00000000       5.67993546
2
Properties=species:S:1:pos:R:3:forces:R:3 energy=-12.707589880915814 pbc="F F F"
Mo       0.00000000       0.00000000       0.00000000       0.00000000       0.00000000      -2.18377566
Mo       0.00000000       0.00000000       1.94747475       0.00000000       0.00000000       2.18377566
2
Properties=species:S:1:pos:R:3:forces:R:3 energy=-12.758060352565158 pbc="F F F"
Mo       0.00000000       0.00000000       0.00000000       0.00000000       0.00000000       0.36167303
Mo       0.00000000       0.00000000       2.00707071       0.00000000       0.00000000      -0.36167303
2
Properties=species:S:1:pos:R:3:forces:R:3 energy=-12.677500856192863 pbc="F F F"
Mo       0.00000000       0.00000000       0.00000000       0.00000000       0.00000000       2.24586844
Mo       0.00000000       0.00000000       2.06666667       0.00000000       0.00000000      -2.24586844
2
Properties=species:S:1:pos:R:3:forces:R:3 energy=-12.501216867831005 pbc="F F F"
Mo       0.00000000       0.00000000       0.00000000       0.00000000       0.00000000       3.57989359
Mo       0.00000000       0.00000000       2.12626263       0.00000000       0.00000000      -3.57989359
2
Properties=species:S:1:pos:R:3:forces:R:3 energy=-12.261755228847061 pbc="F F F"
Mo       0.00000000       0.00000000       0.00000000       0.00000000       0.00000000       4.36426735
Mo       0.00000000       0.00000000       2.18585859       0.00000000       0.00000000      -4.36426735
2
Properties=species:S:1:pos:R:3:forces:R:3 energy=-11.991261745903635 pbc="F F F"
Mo       0.00000000       0.00000000       0.00000000       0.00000000       0.00000000       4.63927126
Mo       0.00000000       0.00000000       2.24545455       0.00000000       0.00000000      -4.63927126
2
Properties=species:S:1:pos:R:3:forces:R:3 energy=-11.715355208310362 pbc="F F F"
Mo       0.00000000       0.00000000       0.00000000       0.00000000       0.00000000       4.58596706
Mo       0.00000000       0.00000000       2.30505051       0.00000000       0.00000000      -4.58596706
2
Properties=species:S:1:pos:R:3:forces:R:3 energy=-11.44643067398311 pbc="F F F"
Mo       0.00000000       0.00000000       0.00000000       0.00000000       0.00000000       4.43895006
Mo       0.00000000       0.00000000       2.36464646       0.00000000       0.00000000      -4.43895006
2
Properties=species:S:1:pos:R:3:forces:R:3 energy=-11.185511368270545 pbc="F F F"
Mo       0.00000000       0.00000000       0.00000000       0.00000000       0.00000000       4.32401705
Mo       0.00000000       0.00000000       2.42424242       0.00000000       0.00000000      -4.32401705
2
Properties=species:S:1:pos:R:3:forces:R:3 energy=-10.931059515597248 pbc="F F F"
Mo       0.00000000       0.00000000       0.00000000       0.00000000       0.00000000       4.20524502
Mo       0.00000000       0.00000000       2.48383838       0.00000000       0.00000000      -4.20524502
2
Properties=species:S:1:pos:R:3:forces:R:3 energy=-10.686789304334335 pbc="F F F"
Mo       0.00000000       0.00000000       0.00000000       0.00000000       0.00000000       3.96127844
Mo       0.00000000       0.00000000       2.54343434       0.00000000       0.00000000      -3.96127844
2
Properties=species:S:1:pos:R:3:forces:R:3 energy=-10.463325889348917 pbc="F F F"
Mo       0.00000000       0.00000000       0.00000000       0.00000000       0.00000000       3.49855113
Mo       0.00000000       0.00000000       2.60303030       0.00000000       0.00000000      -3.49855113
2
Properties=species:S:1:pos:R:3:forces:R:3 energy=-10.274106951671813 pbc="F F F"
Mo       0.00000000       0.00000000       0.00000000       0.00000000       0.00000000       2.82212758
Mo       0.00000000       0.00000000       2.66262626       0.00000000       0.00000000      -2.82212758
2
Properties=species:S:1:pos:R:3:forces:R:3 energy=-10.129153994463955 pbc="F F F"
Mo       0.00000000       0.00000000       0.00000000       0.00000000       0.00000000       2.03641200
Mo       0.00000000       0.00000000       2.72222222       0.00000000       0.00000000      -2.03641200
2
Properties=species:S:1:pos:R:3:forces:R:3 energy=-10.030552775602278 pbc="F F F"
Mo       0.00000000       0.00000000       0.00000000       0.00000000       0.00000000       1.29167151
Mo       0.00000000       0.00000000       2.78181818       0.00000000       0.00000000      -1.29167151
2
Properties=species:S:1:pos:R:3:forces:R:3 energy=-9.971757026543719 pbc="F F F"
Mo       0.00000000       0.00000000       0.00000000       0.00000000       0.00000000       0.71783483
Mo       0.00000000       0.00000000       2.84141414       0.00000000       0.00000000      -0.71783483
2
Properties=species:S:1:pos:R:3:forces:R:3 energy=-9.940220611269348 pbc="F F F"
Mo       0.00000000       0.00000000       0.00000000       0.00000000       0.00000000       0.38175580
Mo       0.00000000       0.00000000       2.90101010       0.00000000       0.00000000      -0.38175580
2
Properties=species:S:1:pos:R:3:forces:R:3 energy=-9.921612947591335 pbc="F F F"
Mo       0.00000000       0.00000000       0.00000000       0.00000000       0.00000000       0.27720574
Mo       0.00000000       0.00000000       2.96060606       0.00000000       0.00000000      -0.27720574
2
Properties=species:S:1:pos:R:3:forces:R:3 energy=-9.903901483477085 pbc="F F F"
Mo       0.00000000       0.00000000       0.00000000       0.00000000       0.00000000       0.33654746
Mo       0.00000000       0.00000000       3.02020202       0.00000000       0.00000000      -0.33654746
2
Properties=species:S:1:pos:R:3:forces:R:3 energy=-9.880226730938459 pbc="F F F"
Mo       0.00000000       0.00000000       0.00000000       0.00000000       0.00000000       0.46039140
Mo       0.00000000       0.00000000       3.07979798       0.00000000       0.00000000      -0.46039140
2
Properties=species:S:1:pos:R:3:forces:R:3 energy=-9.849530560820238 pbc="F F F"
Mo       0.00000000       0.00000000       0.00000000       0.00000000       0.00000000       0.56035316
Mo       0.00000000       0.00000000       3.13939394       0.00000000       0.00000000      -0.56035316
2
Properties=species:S:1:pos:R:3:forces:R:3 energy=-9.814893299689745 pbc="F F F"
Mo       0.00000000       0.00000000       0.00000000       0.00000000       0.00000000       0.58853865
Mo       0.00000000       0.00000000       3.19898990       0.00000000       0.00000000      -0.58853865
2
Properties=species:S:1:pos:R:3:forces:R:3 energy=-9.780904513497434 pbc="F F F"
Mo       0.00000000       0.00000000       0.00000000       0.00000000       0.00000000       0.54113227
Mo       0.00000000       0.00000000       3.25858586       0.00000000       0.00000000      -0.54113227
2
Properties=species:S:1:pos:R:3:forces:R:3 energy=-9.7513479149086 pbc="F F F"
Mo       0.00000000       0.00000000       0.00000000       0.00000000       0.00000000       0.44616744
Mo       0.00000000       0.00000000       3.31818182       0.00000000       0.00000000      -0.44616744
2
Properties=species:S:1:pos:R:3:forces:R:3 energy=-9.727853161700509 pbc="F F F"
Mo       0.00000000       0.00000000       0.00000000       0.00000000       0.00000000       0.34450516
Mo       0.00000000       0.00000000       3.37777778       0.00000000       0.00000000      -0.34450516
2
Properties=species:S:1:pos:R:3:forces:R:3 energy=-9.709716990551406 pbc="F F F"
Mo       0.00000000       0.00000000       0.00000000       0.00000000       0.00000000       0.27086338
Mo       0.00000000       0.00000000       3.43737374       0.00000000       0.00000000      -0.27086338
2
Properties=species:S:1:pos:R:3:forces:R:3 energy=-9.694664672165361 pbc="F F F"
Mo       0.00000000       0.00000000       0.00000000       0.00000000       0.00000000       0.24202691
Mo       0.00000000       0.00000000       3.49696970       0.00000000       0.00000000      -0.24202691
2
Properties=species:S:1:pos:R:3:forces:R:3 energy=-9.68001778221036 pbc="F F F"
Mo       0.00000000       0.00000000       0.00000000       0.00000000       0.00000000       0.25557238
Mo       0.00000000       0.00000000       3.55656566       0.00000000       0.00000000      -0.25557238
2
Properties=species:S:1:pos:R:3:forces:R:3 energy=-9.66365276073617 pbc="F F F"
Mo       0.00000000       0.00000000       0.00000000       0.00000000       0.00000000       0.29670149
Mo       0.00000000       0.00000000       3.61616162       0.00000000       0.00000000      -0.29670149
2
Properties=species:S:1:pos:R:3:forces:R:3 energy=-9.64446468600408 pbc="F F F"
Mo       0.00000000       0.00000000       0.00000000       0.00000000       0.00000000       0.34750873
Mo       0.00000000       0.00000000       3.67575758       0.00000000       0.00000000      -0.34750873
2
Properties=species:S:1:pos:R:3:forces:R:3 energy=-9.622327460920086 pbc="F F F"
Mo       0.00000000       0.00000000       0.00000000       0.00000000       0.00000000       0.39379075
Mo       0.00000000       0.00000000       3.73535354       0.00000000       0.00000000      -0.39379075
2
Properties=species:S:1:pos:R:3:forces:R:3 energy=-9.597779486984793 pbc="F F F"
Mo       0.00000000       0.00000000       0.00000000       0.00000000       0.00000000       0.42756242
Mo       0.00000000       0.00000000       3.79494949       0.00000000       0.00000000      -0.42756242
2
Properties=species:S:1:pos:R:3:forces:R:3 energy=-9.571666704995076 pbc="F F F"
Mo       0.00000000       0.00000000       0.00000000       0.00000000       0.00000000       0.44623309
Mo       0.00000000       0.00000000       3.85454545       0.00000000       0.00000000      -0.44623309
2
Properties=species:S:1:pos:R:3:forces:R:3 energy=-9.544879022808997 pbc="F F F"
Mo       0.00000000       0.00000000       0.00000000       0.00000000       0.00000000       0.45055676
Mo       0.00000000       0.00000000       3.91414141       0.00000000       0.00000000      -0.45055676
2
Properties=species:S:1:pos:R:3:forces:R:3 energy=-9.518202955320833 pbc="F F F"
Mo       0.00000000       0.00000000       0.00000000       0.00000000       0.00000000       0.44289356
Mo       0.00000000       0.00000000       3.97373737       0.00000000       0.00000000      -0.44289356
2
Properties=species:S:1:pos:R:3:forces:R:3 energy=-9.492267816226088 pbc="F F F"
Mo       0.00000000       0.00000000       0.00000000       0.00000000       0.00000000       0.42623609
Mo       0.00000000       0.00000000       4.03333333       0.00000000       0.00000000      -0.42623609
2
Properties=species:S:1:pos:R:3:forces:R:3 energy=-9.467515818328534 pbc="F F F"
Mo       0.00000000       0.00000000       0.00000000       0.00000000       0.00000000       0.40368992
Mo       0.00000000       0.00000000       4.09292929       0.00000000       0.00000000      -0.40368992
2
Properties=species:S:1:pos:R:3:forces:R:3 energy=-9.444210770650667 pbc="F F F"
Mo       0.00000000       0.00000000       0.00000000       0.00000000       0.00000000       0.37811935
Mo       0.00000000       0.00000000       4.15252525       0.00000000       0.00000000      -0.37811935
2
Properties=species:S:1:pos:R:3:forces:R:3 energy=-9.4224610109668 pbc="F F F"
Mo       0.00000000       0.00000000       0.00000000       0.00000000       0.00000000       0.35181707
Mo       0.00000000       0.00000000       4.21212121       0.00000000       0.00000000      -0.35181707
2
Properties=species:S:1:pos:R:3:forces:R:3 energy=-9.4022611837393 pbc="F F F"
Mo       0.00000000       0.00000000       0.00000000       0.00000000       0.00000000       0.32629281
Mo       0.00000000       0.00000000       4.27171717       0.00000000       0.00000000      -0.32629281
2
Properties=species:S:1:pos:R:3:forces:R:3 energy=-9.383539961848289 pbc="F F F"
Mo       0.00000000       0.00000000       0.00000000       0.00000000       0.00000000       0.30225527
Mo       0.00000000       0.00000000       4.33131313       0.00000000       0.00000000      -0.30225527
2
Properties=species:S:1:pos:R:3:forces:R:3 energy=-9.366203750883427 pbc="F F F"
Mo       0.00000000       0.00000000       0.00000000       0.00000000       0.00000000       0.27977082
Mo       0.00000000       0.00000000       4.39090909       0.00000000       0.00000000      -0.27977082
2
Properties=species:S:1:pos:R:3:forces:R:3 energy=-9.35016803368348 pbc="F F F"
Mo       0.00000000       0.00000000       0.00000000       0.00000000       0.00000000       0.25854999
Mo       0.00000000       0.00000000       4.45050505       0.00000000       0.00000000      -0.25854999
2
Properties=species:S:1:pos:R:3:forces:R:3 energy=-9.335368732064737 pbc="F F F"
Mo       0.00000000       0.00000000       0.00000000       0.00000000       0.00000000       0.23823568
Mo       0.00000000       0.00000000       4.51010101       0.00000000       0.00000000      -0.23823568
2
Properties=species:S:1:pos:R:3:forces:R:3 energy=-9.321759073365358 pbc="F F F"
Mo       0.00000000       0.00000000       0.00000000       0.00000000       0.00000000       0.21860431
Mo       0.00000000       0.00000000       4.56969697       0.00000000       0.00000000      -0.21860431
2
Properties=species:S:1:pos:R:3:forces:R:3 energy=-9.309300066373495 pbc="F F F"
Mo       0.00000000       0.00000000       0.00000000       0.00000000       0.00000000       0.19962548
Mo       0.00000000       0.00000000       4.62929293       0.00000000       0.00000000      -0.19962548
2
Properties=species:S:1:pos:R:3:forces:R:3 energy=-9.297950666808854 pbc="F F F"
Mo       0.00000000       0.00000000       0.00000000       0.00000000       0.00000000       0.18139604
Mo       0.00000000       0.00000000       4.68888889       0.00000000       0.00000000      -0.18139604
2
Properties=species:S:1:pos:R:3:forces:R:3 energy=-9.287662926587723 pbc="F F F"
Mo       0.00000000       0.00000000       0.00000000       0.00000000       0.00000000       0.16399522
Mo       0.00000000       0.00000000       4.74848485       0.00000000       0.00000000      -0.16399522
2
Properties=species:S:1:pos:R:3:forces:R:3 energy=-9.278387487785691 pbc="F F F"
Mo       0.00000000       0.00000000       0.00000000       0.00000000       0.00000000       0.14740577
Mo       0.00000000       0.00000000       4.80808081       0.00000000       0.00000000      -0.14740577
2
Properties=species:S:1:pos:R:3:forces:R:3 energy=-9.270078401694377 pbc="F F F"
Mo       0.00000000       0.00000000       0.00000000       0.00000000       0.00000000       0.13154167
Mo       0.00000000       0.00000000       4.86767677       0.00000000       0.00000000      -0.13154167
2
Properties=species:S:1:pos:R:3:forces:R:3 energy=-9.262693832237794 pbc="F F F"
Mo       0.00000000       0.00000000       0.00000000       0.00000000       0.00000000       0.11644451
Mo       0.00000000       0.00000000       4.92727273       0.00000000       0.00000000      -0.11644451
2
Properties=species:S:1:pos:R:3:forces:R:3 energy=-9.256176966646915 pbc="F F F"
Mo       0.00000000       0.00000000       0.00000000       0.00000000       0.00000000       0.10247458
Mo       0.00000000       0.00000000       4.98686869       0.00000000       0.00000000      -0.10247458
2
Properties=species:S:1:pos:R:3:forces:R:3 energy=-9.250444539689655 pbc="F F F"
Mo       0.00000000       0.00000000       0.00000000       0.00000000       0.00000000       0.09027721
Mo       0.00000000       0.00000000       5.04646465       0.00000000       0.00000000      -0.09027721
2
Properties=species:S:1:pos:R:3:forces:R:3 energy=-9.245373349181907 pbc="F F F"
Mo       0.00000000       0.00000000       0.00000000       0.00000000       0.00000000       0.08024823
Mo       0.00000000       0.00000000       5.10606061       0.00000000       0.00000000      -0.08024823
2
Properties=species:S:1:pos:R:3:forces:R:3 energy=-9.240849976932708 pbc="F F F"
Mo       0.00000000       0.00000000       0.00000000       0.00000000       0.00000000       0.07161706
Mo       0.00000000       0.00000000       5.16565657       0.00000000       0.00000000      -0.07161706
2
Properties=species:S:1:pos:R:3:forces:R:3 energy=-9.236850849869478 pbc="F F F"
Mo       0.00000000       0.00000000       0.00000000       0.00000000       0.00000000       0.06227839
Mo       0.00000000       0.00000000       5.22525253       0.00000000       0.00000000      -0.06227839
2
Properties=species:S:1:pos:R:3:forces:R:3 energy=-9.233468904905024 pbc="F F F"
Mo       0.00000000       0.00000000       0.00000000       0.00000000       0.00000000       0.05099554
Mo       0.00000000       0.00000000       5.28484848       0.00000000       0.00000000      -0.05099554
2
Properties=species:S:1:pos:R:3:forces:R:3 energy=-9.230765937313059 pbc="F F F"
Mo       0.00000000       0.00000000       0.00000000       0.00000000       0.00000000       0.04011893
Mo       0.00000000       0.00000000       5.34444444       0.00000000       0.00000000      -0.04011893
2
Properties=species:S:1:pos:R:3:forces:R:3 energy=-9.228605653869863 pbc="F F F"
Mo       0.00000000       0.00000000       0.00000000       0.00000000       0.00000000       0.03313464
Mo       0.00000000       0.00000000       5.40404040       0.00000000       0.00000000      -0.03313464
2
Properties=species:S:1:pos:R:3:forces:R:3 energy=-9.226749154327521 pbc="F F F"
Mo       0.00000000       0.00000000       0.00000000       0.00000000       0.00000000       0.02938700
Mo       0.00000000       0.00000000       5.46363636       0.00000000       0.00000000      -0.02938700
2
Properties=species:S:1:pos:R:3:forces:R:3 energy=-9.225125812933639 pbc="F F F"
Mo       0.00000000       0.00000000       0.00000000       0.00000000       0.00000000       0.02455009
Mo       0.00000000       0.00000000       5.52323232       0.00000000       0.00000000      -0.02455009
2
Properties=species:S:1:pos:R:3:forces:R:3 energy=-9.223903945365436 pbc="F F F"
Mo       0.00000000       0.00000000       0.00000000       0.00000000       0.00000000       0.01586288
Mo       0.00000000       0.00000000       5.58282828       0.00000000       0.00000000      -0.01586288
2
Properties=species:S:1:pos:R:3:forces:R:3 energy=-9.22325143647631 pbc="F F F"
Mo       0.00000000       0.00000000       0.00000000       0.00000000       0.00000000       0.00653078
Mo       0.00000000       0.00000000       5.64242424       0.00000000       0.00000000      -0.00653078
2
Properties=species:S:1:pos:R:3:forces:R:3 energy=-9.222999219975051 pbc="F F F"
Mo       0.00000000       0.00000000       0.00000000       0.00000000       0.00000000       0.00337474
Mo       0.00000000       0.00000000       5.70202020       0.00000000       0.00000000      -0.00337474
2
Properties=species:S:1:pos:R:3:forces:R:3 energy=-9.222696635885686 pbc="F F F"
Mo       0.00000000       0.00000000       0.00000000       0.00000000       0.00000000       0.00758336
Mo       0.00000000       0.00000000       5.76161616       0.00000000       0.00000000      -0.00758336
2
Properties=species:S:1:pos:R:3:forces:R:3 energy=-9.222071107903643 pbc="F F F"
Mo       0.00000000       0.00000000       0.00000000       0.00000000       0.00000000       0.01306683
Mo       0.00000000       0.00000000       5.82121212       0.00000000       0.00000000      -0.01306683
2
Properties=species:S:1:pos:R:3:forces:R:3 energy=-9.221206591366684 pbc="F F F"
Mo       0.00000000       0.00000000       0.00000000       0.00000000       0.00000000       0.01534893
Mo       0.00000000       0.00000000       5.88080808       0.00000000       0.00000000      -0.01534893
2
Properties=species:S:1:pos:R:3:forces:R:3 energy=-9.22029085272889 pbc="F F F"
Mo       0.00000000       0.00000000       0.00000000       0.00000000       0.00000000       0.01516149
Mo       0.00000000       0.00000000       5.94040404       0.00000000       0.00000000      -0.01516149
2
Properties=species:S:1:pos:R:3:forces:R:3 energy=-9.219410488187338 pbc="F F F"
Mo       0.00000000       0.00000000       0.00000000       0.00000000       0.00000000       0.01437535
Mo       0.00000000       0.00000000       6.00000000       0.00000000       0.00000000      -0.01437535
