2
Properties=species:S:1:pos:R:3:forces:R:3 energy=3021.214085171487 pbc="F F F"
Ne       0.00000000       0.00000000       0.00000000       0.00000000       0.00000000  -60786.82812500
Ne       0.00000000       0.00000000       0.10000000       0.00000000       0.00000000   60786.82812500
2
Properties=species:S:1:pos:R:3:forces:R:3 energy=1080.1092267730496 pbc="F F F"
Ne       0.00000000       0.00000000       0.00000000       0.00000000       0.00000000  -16268.29492188
Ne       0.00000000       0.00000000       0.15959596       0.00000000       0.00000000   16268.29492188
2
Properties=species:S:1:pos:R:3:forces:R:3 energy=479.6429181792996 pbc="F F F"
Ne       0.00000000       0.00000000       0.00000000       0.00000000       0.00000000   -5954.08642578
Ne       0.00000000       0.00000000       0.21919192       0.00000000       0.00000000    5954.08642578
2
Properties=species:S:1:pos:R:3:forces:R:3 energy=241.06796700861253 pbc="F F F"
Ne       0.00000000       0.00000000       0.00000000       0.00000000       0.00000000   -2603.75097656
Ne       0.00000000       0.00000000       0.27878788       0.00000000       0.00000000    2603.75097656
2
Properties=species:S:1:pos:R:3:forces:R:3 energy=130.7898298047491 pbc="F F F"
Ne       0.00000000       0.00000000       0.00000000       0.00000000       0.00000000   -1281.96496582
Ne       0.00000000       0.00000000       0.33838384       0.00000000       0.00000000    1281.96496582
2
Properties=species:S:1:pos:R:3:forces:R:3 energy=74.34750803453294 pbc="F F F"
Ne       0.00000000       0.00000000       0.00000000       0.00000000       0.00000000    -684.74755859
Ne       0.00000000       0.00000000       0.39797980       0.00000000       0.00000000     684.74755859
2
Properties=species:S:1:pos:R:3:forces:R:3 energy=43.3850980776235 pbc="F F F"
Ne       0.00000000       0.00000000       0.00000000       0.00000000       0.00000000    -386.44677734
Ne       0.00000000       0.00000000       0.45757576       0.00000000       0.00000000     386.44677734
2
Properties=species:S:1:pos:R:3:forces:R:3 energy=25.602480538748082 pbc="F F F"
Ne       0.00000000       0.00000000       0.00000000       0.00000000       0.00000000    -225.96810913
Ne       0.00000000       0.00000000       0.51717172       0.00000000       0.00000000     225.96810913
2
Properties=species:S:1:pos:R:3:forces:R:3 energy=15.095202150218249 pbc="F F F"
Ne       0.00000000       0.00000000       0.00000000       0.00000000       0.00000000    -134.86523438
Ne       0.00000000       0.00000000       0.57676768       0.00000000       0.00000000     134.86523438
2
Properties=species:S:1:pos:R:3:forces:R:3 energy=8.794252190543153 pbc="F F F"
Ne       0.00000000       0.00000000       0.00000000       0.00000000       0.00000000     -81.16642761
Ne       0.00000000       0.00000000       0.63636364       0.00000000       0.00000000      81.16642761
2
Properties=species:S:1:pos:R:3:forces:R:3 energy=5.0031723378506365 pbc="F F F"
Ne       0.00000000       0.00000000       0.00000000       0.00000000       0.00000000     -48.72417450
Ne       0.00000000       0.00000000       0.69595960       0.00000000       0.00000000      48.72417450
2
Properties=species:S:1:pos:R:3:forces:R:3 energy=2.739454193767218 pbc="F F F"
Ne       0.00000000       0.00000000       0.00000000       0.00000000       0.00000000     -28.84807777
Ne       0.00000000       0.00000000       0.75555556       0.00000000       0.00000000      28.84807777
2
Properties=species:S:1:pos:R:3:forces:R:3 energy=1.4141034065551452 pbc="F F F"
Ne       0.00000000       0.00000000       0.00000000       0.00000000       0.00000000     -16.61802864
Ne       0.00000000       0.00000000       0.81515152       0.00000000       0.00000000      16.61802864
2
Properties=species:S:1:pos:R:3:forces:R:3 energy=0.6650909990023258 pbc="F F F"
Ne       0.00000000       0.00000000       0.00000000       0.00000000       0.00000000      -9.13773441
Ne       0.00000000       0.00000000       0.87474747       0.00000000       0.00000000       9.13773441
2
Properties=species:S:1:pos:R:3:forces:R:3 energy=0.2659019945176113 pbc="F F F"
Ne       0.00000000       0.00000000       0.00000000       0.00000000       0.00000000      -4.65159893
Ne       0.00000000       0.00000000       0.93434343       0.00000000       0.00000000       4.65159893
2
Properties=species:S:1:pos:R:3:forces:R:3 energy=0.07306543699765933 pbc="F F F"
Ne       0.00000000       0.00000000       0.00000000       0.00000000       0.00000000      -2.07074428
Ne       0.00000000       0.00000000       0.99393939       0.00000000       0.00000000       2.07074428
2
Properties=species:S:1:pos:R:3:forces:R:3 energy=-0.004916662316222812 pbc="F F F"
Ne       0.00000000       0.00000000       0.00000000       0.00000000       0.00000000      -0.70641875
Ne       0.00000000       0.00000000       1.05353535       0.00000000       0.00000000       0.70641875
2
Properties=species:S:1:pos:R:3:forces:R:3 energy=-0.026398692658457273 pbc="F F F"
Ne       0.00000000       0.00000000       0.00000000       0.00000000       0.00000000      -0.11554123
Ne       0.00000000       0.00000000       1.11313131       0.00000000       0.00000000       0.11554123
2
Properties=species:S:1:pos:R:3:forces:R:3 energy=-0.028213909490164 pbc="F F F"
Ne       0.00000000       0.00000000       0.00000000       0.00000000       0.00000000      -0.00165963
Ne       0.00000000       0.00000000       1.17272727       0.00000000       0.00000000       0.00165963
2
Properties=species:S:1:pos:R:3:forces:R:3 energy=-0.02831594154972042 pbc="F F F"
Ne       0.00000000       0.00000000       0.00000000       0.00000000       0.00000000      -0.00176120
Ne       0.00000000       0.00000000       1.23232323       0.00000000       0.00000000       0.00176120
2
Properties=species:S:1:pos:R:3:forces:R:3 energy=-0.028423492735729906 pbc="F F F"
Ne       0.00000000       0.00000000       0.00000000       0.00000000       0.00000000      -0.00184485
Ne       0.00000000       0.00000000       1.29191919       0.00000000       0.00000000       0.00184485
2
Properties=species:S:1:pos:R:3:forces:R:3 energy=-0.028535246297539306 pbc="F F F"
Ne       0.00000000       0.00000000       0.00000000       0.00000000       0.00000000      -0.00189853
Ne       0.00000000       0.00000000       1.35151515       0.00000000       0.00000000       0.00189853
2
Properties=species:S:1:pos:R:3:forces:R:3 energy=-0.028648707443304992 pbc="F F F"
Ne       0.00000000       0.00000000       0.00000000       0.00000000       0.00000000      -0.00189853
Ne       0.00000000       0.00000000       1.41111111       0.00000000       0.00000000       0.00189853
2
Properties=species:S:1:pos:R:3:forces:R:3 energy=-0.02876019481872264 pbc="F F F"
Ne       0.00000000       0.00000000       0.00000000       0.00000000       0.00000000      -0.00183170
Ne       0.00000000       0.00000000       1.47070707       0.00000000       0.00000000       0.00183170
2
Properties=species:S:1:pos:R:3:forces:R:3 energy=-0.028865793272144412 pbc="F F F"
Ne       0.00000000       0.00000000       0.00000000       0.00000000       0.00000000      -0.00170299
Ne       0.00000000       0.00000000       1.53030303       0.00000000       0.00000000       0.00170299
2
Properties=species:S:1:pos:R:3:forces:R:3 energy=-0.028962261241500708 pbc="F F F"
Ne       0.00000000       0.00000000       0.00000000       0.00000000       0.00000000      -0.00152816
Ne       0.00000000       0.00000000       1.58989899       0.00000000       0.00000000       0.00152816
2
Properties=species:S:1:pos:R:3:forces:R:3 energy=-0.02904735909306788 pbc="F F F"
Ne       0.00000000       0.00000000       0.00000000       0.00000000       0.00000000      -0.00132401
Ne       0.00000000       0.00000000       1.64949495       0.00000000       0.00000000       0.00132401
2
Properties=species:S:1:pos:R:3:forces:R:3 energy=-0.02911975722139079 pbc="F F F"
Ne       0.00000000       0.00000000       0.00000000       0.00000000       0.00000000      -0.00110386
Ne       0.00000000       0.00000000       1.70909091       0.00000000       0.00000000       0.00110386
2
Properties=species:S:1:pos:R:3:forces:R:3 energy=-0.02917880559450574 pbc="F F F"
Ne       0.00000000       0.00000000       0.00000000       0.00000000       0.00000000      -0.00087732
Ne       0.00000000       0.00000000       1.76868687       0.00000000       0.00000000       0.00087732
2
Properties=species:S:1:pos:R:3:forces:R:3 energy=-0.029224332426773986 pbc="F F F"
Ne       0.00000000       0.00000000       0.00000000       0.00000000       0.00000000      -0.00065097
Ne       0.00000000       0.00000000       1.82828283       0.00000000       0.00000000       0.00065097
2
Properties=species:S:1:pos:R:3:forces:R:3 energy=-0.02925647959139676 pbc="F F F"
Ne       0.00000000       0.00000000       0.00000000       0.00000000       0.00000000      -0.00042875
Ne       0.00000000       0.00000000       1.88787879       0.00000000       0.00000000       0.00042875
2
Properties=species:S:1:pos:R:3:forces:R:3 energy=-0.029275552376623347 pbc="F F F"
Ne       0.00000000       0.00000000       0.00000000       0.00000000       0.00000000      -0.00021232
Ne       0.00000000       0.00000000       1.94747475       0.00000000       0.00000000       0.00021232
2
Properties=species:S:1:pos:R:3:forces:R:3 energy=-0.029281904866704348 pbc="F F F"
Ne       0.00000000       0.00000000       0.00000000       0.00000000       0.00000000      -0.00000185
Ne       0.00000000       0.00000000       2.00707071       0.00000000       0.00000000       0.00000185
2
Properties=species:S:1:pos:R:3:forces:R:3 energy=-0.029275877755643255 pbc="F F F"
Ne       0.00000000       0.00000000       0.00000000       0.00000000       0.00000000       0.00020332
Ne       0.00000000       0.00000000       2.06666667       0.00000000       0.00000000      -0.00020332
2
Properties=species:S:1:pos:R:3:forces:R:3 energy=-0.02925775874717715 pbc="F F F"
Ne       0.00000000       0.00000000       0.00000000       0.00000000       0.00000000       0.00040403
Ne       0.00000000       0.00000000       2.12626263       0.00000000       0.00000000      -0.00040403
2
Properties=species:S:1:pos:R:3:forces:R:3 energy=-0.0292277964139986 pbc="F F F"
Ne       0.00000000       0.00000000       0.00000000       0.00000000       0.00000000       0.00060095
Ne       0.00000000       0.00000000       2.18585859       0.00000000       0.00000000      -0.00060095
2
Properties=species:S:1:pos:R:3:forces:R:3 energy=-0.029186198246617154 pbc="F F F"
Ne       0.00000000       0.00000000       0.00000000       0.00000000       0.00000000       0.00079442
Ne       0.00000000       0.00000000       2.24545455       0.00000000       0.00000000      -0.00079442
2
Properties=species:S:1:pos:R:3:forces:R:3 energy=-0.029133176250545758 pbc="F F F"
Ne       0.00000000       0.00000000       0.00000000       0.00000000       0.00000000       0.00098436
Ne       0.00000000       0.00000000       2.30505051       0.00000000       0.00000000      -0.00098436
2
Properties=species:S:1:pos:R:3:forces:R:3 energy=-0.029068951096319143 pbc="F F F"
Ne       0.00000000       0.00000000       0.00000000       0.00000000       0.00000000       0.00117025
Ne       0.00000000       0.00000000       2.36464646       0.00000000       0.00000000      -0.00117025
2
Properties=species:S:1:pos:R:3:forces:R:3 energy=-0.028993790662077443 pbc="F F F"
Ne       0.00000000       0.00000000       0.00000000       0.00000000       0.00000000       0.00135116
Ne       0.00000000       0.00000000       2.42424242       0.00000000       0.00000000      -0.00135116
2
Properties=species:S:1:pos:R:3:forces:R:3 energy=-0.02890802813129984 pbc="F F F"
Ne       0.00000000       0.00000000       0.00000000       0.00000000       0.00000000       0.00152582
Ne       0.00000000       0.00000000       2.48383838       0.00000000       0.00000000      -0.00152582
2
Properties=species:S:1:pos:R:3:forces:R:3 energy=-0.028812081395715238 pbc="F F F"
Ne       0.00000000       0.00000000       0.00000000       0.00000000       0.00000000       0.00169261
Ne       0.00000000       0.00000000       2.54343434       0.00000000       0.00000000      -0.00169261
2
Properties=species:S:1:pos:R:3:forces:R:3 energy=-0.02870647567028174 pbc="F F F"
Ne       0.00000000       0.00000000       0.00000000       0.00000000       0.00000000       0.00184964
Ne       0.00000000       0.00000000       2.60303030       0.00000000       0.00000000      -0.00184964
2
Properties=species:S:1:pos:R:3:forces:R:3 energy=-0.02859185315814347 pbc="F F F"
Ne       0.00000000       0.00000000       0.00000000       0.00000000       0.00000000       0.00199485
Ne       0.00000000       0.00000000       2.66262626       0.00000000       0.00000000      -0.00199485
2
Properties=species:S:1:pos:R:3:forces:R:3 energy=-0.028468983346052582 pbc="F F F"
Ne       0.00000000       0.00000000       0.00000000       0.00000000       0.00000000       0.00212609
Ne       0.00000000       0.00000000       2.72222222       0.00000000       0.00000000      -0.00212609
2
Properties=species:S:1:pos:R:3:forces:R:3 energy=-0.02833876114172408 pbc="F F F"
Ne       0.00000000       0.00000000       0.00000000       0.00000000       0.00000000       0.00224128
Ne       0.00000000       0.00000000       2.78181818       0.00000000       0.00000000      -0.00224128
2
Properties=species:S:1:pos:R:3:forces:R:3 energy=-0.02820219753185977 pbc="F F F"
Ne       0.00000000       0.00000000       0.00000000       0.00000000       0.00000000       0.00233856
Ne       0.00000000       0.00000000       2.84141414       0.00000000       0.00000000      -0.00233856
2
Properties=species:S:1:pos:R:3:forces:R:3 energy=-0.028060410555404775 pbc="F F F"
Ne       0.00000000       0.00000000       0.00000000       0.00000000       0.00000000       0.00241638
Ne       0.00000000       0.00000000       2.90101010       0.00000000       0.00000000      -0.00241638
2
Properties=species:S:1:pos:R:3:forces:R:3 energy=-0.027914592356647554 pbc="F F F"
Ne       0.00000000       0.00000000       0.00000000       0.00000000       0.00000000       0.00247370
Ne       0.00000000       0.00000000       2.96060606       0.00000000       0.00000000      -0.00247370
2
Properties=species:S:1:pos:R:3:forces:R:3 energy=-0.027765982097241276 pbc="F F F"
Ne       0.00000000       0.00000000       0.00000000       0.00000000       0.00000000       0.00251002
Ne       0.00000000       0.00000000       3.02020202       0.00000000       0.00000000      -0.00251002
2
Properties=species:S:1:pos:R:3:forces:R:3 energy=-0.02761583143314093 pbc="F F F"
Ne       0.00000000       0.00000000       0.00000000       0.00000000       0.00000000       0.00252547
Ne       0.00000000       0.00000000       3.07979798       0.00000000       0.00000000      -0.00252547
2
Properties=species:S:1:pos:R:3:forces:R:3 energy=-0.027465366258502013 pbc="F F F"
Ne       0.00000000       0.00000000       0.00000000       0.00000000       0.00000000       0.00252077
Ne       0.00000000       0.00000000       3.13939394       0.00000000       0.00000000      -0.00252077
2
Properties=species:S:1:pos:R:3:forces:R:3 energy=-0.027315752695839093 pbc="F F F"
Ne       0.00000000       0.00000000       0.00000000       0.00000000       0.00000000       0.00249717
Ne       0.00000000       0.00000000       3.19898990       0.00000000       0.00000000      -0.00249717
2
Properties=species:S:1:pos:R:3:forces:R:3 energy=-0.02716806589452731 pbc="F F F"
Ne       0.00000000       0.00000000       0.00000000       0.00000000       0.00000000       0.00245637
Ne       0.00000000       0.00000000       3.25858586       0.00000000       0.00000000      -0.00245637
2
Properties=species:S:1:pos:R:3:forces:R:3 energy=-0.027023275189384244 pbc="F F F"
Ne       0.00000000       0.00000000       0.00000000       0.00000000       0.00000000       0.00240038
Ne       0.00000000       0.00000000       3.31818182       0.00000000       0.00000000      -0.00240038
2
Properties=species:S:1:pos:R:3:forces:R:3 energy=-0.026882219550048252 pbc="F F F"
Ne       0.00000000       0.00000000       0.00000000       0.00000000       0.00000000       0.00233133
Ne       0.00000000       0.00000000       3.37777778       0.00000000       0.00000000      -0.00233133
2
Properties=species:S:1:pos:R:3:forces:R:3 energy=-0.026745616821207227 pbc="F F F"
Ne       0.00000000       0.00000000       0.00000000       0.00000000       0.00000000       0.00225139
Ne       0.00000000       0.00000000       3.43737374       0.00000000       0.00000000      -0.00225139
2
Properties=species:S:1:pos:R:3:forces:R:3 energy=-0.026614048909930778 pbc="F F F"
Ne       0.00000000       0.00000000       0.00000000       0.00000000       0.00000000       0.00216260
Ne       0.00000000       0.00000000       3.49696970       0.00000000       0.00000000      -0.00216260
2
Properties=species:S:1:pos:R:3:forces:R:3 energy=-0.02648798961860483 pbc="F F F"
Ne       0.00000000       0.00000000       0.00000000       0.00000000       0.00000000       0.00206681
Ne       0.00000000       0.00000000       3.55656566       0.00000000       0.00000000      -0.00206681
2
Properties=species:S:1:pos:R:3:forces:R:3 energy=-0.02636780840672044 pbc="F F F"
Ne       0.00000000       0.00000000       0.00000000       0.00000000       0.00000000       0.00196564
Ne       0.00000000       0.00000000       3.61616162       0.00000000       0.00000000      -0.00196564
2
Properties=species:S:1:pos:R:3:forces:R:3 energy=-0.02625378058730132 pbc="F F F"
Ne       0.00000000       0.00000000       0.00000000       0.00000000       0.00000000       0.00186046
Ne       0.00000000       0.00000000       3.67575758       0.00000000       0.00000000      -0.00186046
2
Properties=species:S:1:pos:R:3:forces:R:3 energy=-0.026146112083262563 pbc="F F F"
Ne       0.00000000       0.00000000       0.00000000       0.00000000       0.00000000       0.00175246
Ne       0.00000000       0.00000000       3.73535354       0.00000000       0.00000000      -0.00175246
2
Properties=species:S:1:pos:R:3:forces:R:3 energy=-0.0260449359471088 pbc="F F F"
Ne       0.00000000       0.00000000       0.00000000       0.00000000       0.00000000       0.00164269
Ne       0.00000000       0.00000000       3.79494949       0.00000000       0.00000000      -0.00164269
2
Properties=species:S:1:pos:R:3:forces:R:3 energy=-0.025950333293008165 pbc="F F F"
Ne       0.00000000       0.00000000       0.00000000       0.00000000       0.00000000       0.00153212
Ne       0.00000000       0.00000000       3.85454545       0.00000000       0.00000000      -0.00153212
2
Properties=species:S:1:pos:R:3:forces:R:3 energy=-0.0258623181273981 pbc="F F F"
Ne       0.00000000       0.00000000       0.00000000       0.00000000       0.00000000       0.00142174
Ne       0.00000000       0.00000000       3.91414141       0.00000000       0.00000000      -0.00142174
2
Properties=species:S:1:pos:R:3:forces:R:3 energy=-0.025780849840534314 pbc="F F F"
Ne       0.00000000       0.00000000       0.00000000       0.00000000       0.00000000       0.00131253
Ne       0.00000000       0.00000000       3.97373737       0.00000000       0.00000000      -0.00131253
2
Properties=species:S:1:pos:R:3:forces:R:3 energy=-0.025705830481645958 pbc="F F F"
Ne       0.00000000       0.00000000       0.00000000       0.00000000       0.00000000       0.00120551
Ne       0.00000000       0.00000000       4.03333333       0.00000000       0.00000000      -0.00120551
2
Properties=species:S:1:pos:R:3:forces:R:3 energy=-0.025637100431930505 pbc="F F F"
Ne       0.00000000       0.00000000       0.00000000       0.00000000       0.00000000       0.00110162
Ne       0.00000000       0.00000000       4.09292929       0.00000000       0.00000000      -0.00110162
2
Properties=species:S:1:pos:R:3:forces:R:3 energy=-0.025574446094872253 pbc="F F F"
Ne       0.00000000       0.00000000       0.00000000       0.00000000       0.00000000       0.00100174
Ne       0.00000000       0.00000000       4.15252525       0.00000000       0.00000000      -0.00100174
2
Properties=species:S:1:pos:R:3:forces:R:3 energy=-0.025517607995537327 pbc="F F F"
Ne       0.00000000       0.00000000       0.00000000       0.00000000       0.00000000       0.00090657
Ne       0.00000000       0.00000000       4.21212121       0.00000000       0.00000000      -0.00090657
2
Properties=species:S:1:pos:R:3:forces:R:3 energy=-0.025466285779793017 pbc="F F F"
Ne       0.00000000       0.00000000       0.00000000       0.00000000       0.00000000       0.00081664
Ne       0.00000000       0.00000000       4.27171717       0.00000000       0.00000000      -0.00081664
2
Properties=species:S:1:pos:R:3:forces:R:3 energy=-0.025420158362174403 pbc="F F F"
Ne       0.00000000       0.00000000       0.00000000       0.00000000       0.00000000       0.00073233
Ne       0.00000000       0.00000000       4.33131313       0.00000000       0.00000000      -0.00073233
2
Properties=species:S:1:pos:R:3:forces:R:3 energy=-0.025378880911804385 pbc="F F F"
Ne       0.00000000       0.00000000       0.00000000       0.00000000       0.00000000       0.00065393
Ne       0.00000000       0.00000000       4.39090909       0.00000000       0.00000000      -0.00065393
2
Properties=species:S:1:pos:R:3:forces:R:3 energy=-0.025342092865692986 pbc="F F F"
Ne       0.00000000       0.00000000       0.00000000       0.00000000       0.00000000       0.00058168
Ne       0.00000000       0.00000000       4.45050505       0.00000000       0.00000000      -0.00058168
2
Properties=species:S:1:pos:R:3:forces:R:3 energy=-0.025309421523785226 pbc="F F F"
Ne       0.00000000       0.00000000       0.00000000       0.00000000       0.00000000       0.00051588
Ne       0.00000000       0.00000000       4.51010101       0.00000000       0.00000000      -0.00051588
2
Properties=species:S:1:pos:R:3:forces:R:3 energy=-0.02528047027912357 pbc="F F F"
Ne       0.00000000       0.00000000       0.00000000       0.00000000       0.00000000       0.00045690
Ne       0.00000000       0.00000000       4.56969697       0.00000000       0.00000000      -0.00045690
2
Properties=species:S:1:pos:R:3:forces:R:3 energy=-0.025254818085128406 pbc="F F F"
Ne       0.00000000       0.00000000       0.00000000       0.00000000       0.00000000       0.00040518
Ne       0.00000000       0.00000000       4.62929293       0.00000000       0.00000000      -0.00040518
2
Properties=species:S:1:pos:R:3:forces:R:3 energy=-0.025232022915152964 pbc="F F F"
Ne       0.00000000       0.00000000       0.00000000       0.00000000       0.00000000       0.00036110
Ne       0.00000000       0.00000000       4.68888889       0.00000000       0.00000000      -0.00036110
2
Properties=species:S:1:pos:R:3:forces:R:3 energy=-0.025211621186765926 pbc="F F F"
Ne       0.00000000       0.00000000       0.00000000       0.00000000       0.00000000       0.00032490
Ne       0.00000000       0.00000000       4.74848485       0.00000000       0.00000000      -0.00032490
2
Properties=species:S:1:pos:R:3:forces:R:3 energy=-0.025193146196713402 pbc="F F F"
Ne       0.00000000       0.00000000       0.00000000       0.00000000       0.00000000       0.00029639
Ne       0.00000000       0.00000000       4.80808081       0.00000000       0.00000000      -0.00029639
2
Properties=species:S:1:pos:R:3:forces:R:3 energy=-0.025176157768250277 pbc="F F F"
Ne       0.00000000       0.00000000       0.00000000       0.00000000       0.00000000       0.00027477
Ne       0.00000000       0.00000000       4.86767677       0.00000000       0.00000000      -0.00027477
2
Properties=species:S:1:pos:R:3:forces:R:3 energy=-0.02516029066166485 pbc="F F F"
Ne       0.00000000       0.00000000       0.00000000       0.00000000       0.00000000       0.00025838
Ne       0.00000000       0.00000000       4.92727273       0.00000000       0.00000000      -0.00025838
2
Properties=species:S:1:pos:R:3:forces:R:3 energy=-0.0251453059858847 pbc="F F F"
Ne       0.00000000       0.00000000       0.00000000       0.00000000       0.00000000       0.00024466
Ne       0.00000000       0.00000000       4.98686869       0.00000000       0.00000000      -0.00024466
2
Properties=species:S:1:pos:R:3:forces:R:3 energy=-0.025131136149446363 pbc="F F F"
Ne       0.00000000       0.00000000       0.00000000       0.00000000       0.00000000       0.00023057
Ne       0.00000000       0.00000000       5.04646465       0.00000000       0.00000000      -0.00023057
2
Properties=species:S:1:pos:R:3:forces:R:3 energy=-0.025117873517883534 pbc="F F F"
Ne       0.00000000       0.00000000       0.00000000       0.00000000       0.00000000       0.00021413
Ne       0.00000000       0.00000000       5.10606061       0.00000000       0.00000000      -0.00021413
2
Properties=species:S:1:pos:R:3:forces:R:3 energy=-0.025105629545656805 pbc="F F F"
Ne       0.00000000       0.00000000       0.00000000       0.00000000       0.00000000       0.00019714
Ne       0.00000000       0.00000000       5.16565657       0.00000000       0.00000000      -0.00019714
2
Properties=species:S:1:pos:R:3:forces:R:3 energy=-0.02509423550312497 pbc="F F F"
Ne       0.00000000       0.00000000       0.00000000       0.00000000       0.00000000       0.00018726
Ne       0.00000000       0.00000000       5.22525253       0.00000000       0.00000000      -0.00018726
2
Properties=species:S:1:pos:R:3:forces:R:3 energy=-0.025082982492304725 pbc="F F F"
Ne       0.00000000       0.00000000       0.00000000       0.00000000       0.00000000       0.00019346
Ne       0.00000000       0.00000000       5.28484848       0.00000000       0.00000000      -0.00019346
2
Properties=species:S:1:pos:R:3:forces:R:3 energy=-0.025070880639155416 pbc="F F F"
Ne       0.00000000       0.00000000       0.00000000       0.00000000       0.00000000       0.00021410
Ne       0.00000000       0.00000000       5.34444444       0.00000000       0.00000000      -0.00021410
2
Properties=species:S:1:pos:R:3:forces:R:3 energy=-0.025057466207020374 pbc="F F F"
Ne       0.00000000       0.00000000       0.00000000       0.00000000       0.00000000       0.00023478
Ne       0.00000000       0.00000000       5.40404040       0.00000000       0.00000000      -0.00023478
2
Properties=species:S:1:pos:R:3:forces:R:3 energy=-0.025043101284507062 pbc="F F F"
Ne       0.00000000       0.00000000       0.00000000       0.00000000       0.00000000       0.00024569
Ne       0.00000000       0.00000000       5.46363636       0.00000000       0.00000000      -0.00024569
2
Properties=species:S:1:pos:R:3:forces:R:3 energy=-0.025028261636324795 pbc="F F F"
Ne       0.00000000       0.00000000       0.00000000       0.00000000       0.00000000       0.00025293
Ne       0.00000000       0.00000000       5.52323232       0.00000000       0.00000000      -0.00025293
2
Properties=species:S:1:pos:R:3:forces:R:3 energy=-0.025012767109106174 pbc="F F F"
Ne       0.00000000       0.00000000       0.00000000       0.00000000       0.00000000       0.00026925
Ne       0.00000000       0.00000000       5.58282828       0.00000000       0.00000000      -0.00026925
2
Properties=species:S:1:pos:R:3:forces:R:3 energy=-0.02499595405307613 pbc="F F F"
Ne       0.00000000       0.00000000       0.00000000       0.00000000       0.00000000       0.00029558
Ne       0.00000000       0.00000000       5.64242424       0.00000000       0.00000000      -0.00029558
2
Properties=species:S:1:pos:R:3:forces:R:3 energy=-0.02497773332924529 pbc="F F F"
Ne       0.00000000       0.00000000       0.00000000       0.00000000       0.00000000       0.00031138
Ne       0.00000000       0.00000000       5.70202020       0.00000000       0.00000000      -0.00031138
2
Properties=species:S:1:pos:R:3:forces:R:3 energy=-0.024959571416057095 pbc="F F F"
Ne       0.00000000       0.00000000       0.00000000       0.00000000       0.00000000       0.00029170
Ne       0.00000000       0.00000000       5.76161616       0.00000000       0.00000000      -0.00029170
2
Properties=species:S:1:pos:R:3:forces:R:3 energy=-0.02494370941041371 pbc="F F F"
Ne       0.00000000       0.00000000       0.00000000       0.00000000       0.00000000       0.00023569
Ne       0.00000000       0.00000000       5.82121212       0.00000000       0.00000000      -0.00023569
2
Properties=species:S:1:pos:R:3:forces:R:3 energy=-0.02493175675533696 pbc="F F F"
Ne       0.00000000       0.00000000       0.00000000       0.00000000       0.00000000       0.00016630
Ne       0.00000000       0.00000000       5.88080808       0.00000000       0.00000000      -0.00016630
2
Properties=species:S:1:pos:R:3:forces:R:3 energy=-0.024923591679176463 pbc="F F F"
Ne       0.00000000       0.00000000       0.00000000       0.00000000       0.00000000       0.00011085
Ne       0.00000000       0.00000000       5.94040404       0.00000000       0.00000000      -0.00011085
2
Properties=species:S:1:pos:R:3:forces:R:3 energy=-0.02491790322534807 pbc="F F F"
Ne       0.00000000       0.00000000       0.00000000       0.00000000       0.00000000       0.00008638
Ne       0.00000000       0.00000000       6.00000000       0.00000000       0.00000000      -0.00008638
