2
Properties=species:S:1:pos:R:3:forces:R:3 energy=110613.98701322352 pbc="F F F"
Np       0.00000000       0.00000000       0.00000000       0.00000000       0.00000000 -2859620.00000000
Np       0.00000000       0.00000000       0.10000000       0.00000000       0.00000000 2859620.00000000
2
Properties=species:S:1:pos:R:3:forces:R:3 energy=29576.45576322352 pbc="F F F"
Np       0.00000000       0.00000000       0.00000000       0.00000000       0.00000000 -569943.68750000
Np       0.00000000       0.00000000       0.15959596       0.00000000       0.00000000  569943.68750000
2
Properties=species:S:1:pos:R:3:forces:R:3 energy=10456.57978666102 pbc="F F F"
Np       0.00000000       0.00000000       0.00000000       0.00000000       0.00000000 -166539.04687500
Np       0.00000000       0.00000000       0.21919192       0.00000000       0.00000000  166539.04687500
2
Properties=species:S:1:pos:R:3:forces:R:3 energy=4336.49580228602 pbc="F F F"
Np       0.00000000       0.00000000       0.00000000       0.00000000       0.00000000  -59434.66015625
Np       0.00000000       0.00000000       0.27878788       0.00000000       0.00000000   59434.66015625
2
Properties=species:S:1:pos:R:3:forces:R:3 energy=2030.7479995516449 pbc="F F F"
Np       0.00000000       0.00000000       0.00000000       0.00000000       0.00000000  -23887.43945312
Np       0.00000000       0.00000000       0.33838384       0.00000000       0.00000000   23887.43945312
2
Properties=species:S:1:pos:R:3:forces:R:3 energy=1068.4796890047699 pbc="F F F"
Np       0.00000000       0.00000000       0.00000000       0.00000000       0.00000000  -10437.00683594
Np       0.00000000       0.00000000       0.39797980       0.00000000       0.00000000   10437.00683594
2
Properties=species:S:1:pos:R:3:forces:R:3 energy=635.2265151766449 pbc="F F F"
Np       0.00000000       0.00000000       0.00000000       0.00000000       0.00000000   -4874.91943359
Np       0.00000000       0.00000000       0.45757576       0.00000000       0.00000000    4874.91943359
2
Properties=species:S:1:pos:R:3:forces:R:3 energy=427.69004669612804 pbc="F F F"
Np       0.00000000       0.00000000       0.00000000       0.00000000       0.00000000   -2406.67797852
Np       0.00000000       0.00000000       0.51717172       0.00000000       0.00000000    2406.67797852
2
Properties=species:S:1:pos:R:3:forces:R:3 energy=323.1250442800644 pbc="F F F"
Np       0.00000000       0.00000000       0.00000000       0.00000000       0.00000000   -1240.91320801
Np       0.00000000       0.00000000       0.57676768       0.00000000       0.00000000    1240.91320801
2
Properties=species:S:1:pos:R:3:forces:R:3 energy=268.443098517297 pbc="F F F"
Np       0.00000000       0.00000000       0.00000000       0.00000000       0.00000000    -658.41650391
Np       0.00000000       0.00000000       0.63636364       0.00000000       0.00000000     658.41650391
2
Properties=species:S:1:pos:R:3:forces:R:3 energy=239.2295670991841 pbc="F F F"
Np       0.00000000       0.00000000       0.00000000       0.00000000       0.00000000    -353.80654907
Np       0.00000000       0.00000000       0.69595960       0.00000000       0.00000000     353.80654907
2
Properties=species:S:1:pos:R:3:forces:R:3 energy=223.4929949476007 pbc="F F F"
Np       0.00000000       0.00000000       0.00000000       0.00000000       0.00000000    -191.32678223
Np       0.00000000       0.00000000       0.75555556       0.00000000       0.00000000     191.32678223
2
Properties=species:S:1:pos:R:3:forces:R:3 energy=214.8759907304675 pbc="F F F"
Np       0.00000000       0.00000000       0.00000000       0.00000000       0.00000000    -107.77470398
Np       0.00000000       0.00000000       0.81515152       0.00000000       0.00000000     107.77470398
2
Properties=species:S:1:pos:R:3:forces:R:3 energy=209.71333227981572 pbc="F F F"
Np       0.00000000       0.00000000       0.00000000       0.00000000       0.00000000     -71.69524384
Np       0.00000000       0.00000000       0.87474747       0.00000000       0.00000000      71.69524384
2
Properties=species:S:1:pos:R:3:forces:R:3 energy=205.71868845690145 pbc="F F F"
Np       0.00000000       0.00000000       0.00000000       0.00000000       0.00000000     -66.68605804
Np       0.00000000       0.00000000       0.93434343       0.00000000       0.00000000      66.68605804
2
Properties=species:S:1:pos:R:3:forces:R:3 energy=201.31408688762917 pbc="F F F"
Np       0.00000000       0.00000000       0.00000000       0.00000000       0.00000000     -84.46987152
Np       0.00000000       0.00000000       0.99393939       0.00000000       0.00000000      84.46987152
2
Properties=species:S:1:pos:R:3:forces:R:3 energy=195.29649415007583 pbc="F F F"
Np       0.00000000       0.00000000       0.00000000       0.00000000       0.00000000    -120.05239105
Np       0.00000000       0.00000000       1.05353535       0.00000000       0.00000000     120.05239105
2
Properties=species:S:1:pos:R:3:forces:R:3 energy=186.74879604978537 pbc="F F F"
Np       0.00000000       0.00000000       0.00000000       0.00000000       0.00000000    -168.50306702
Np       0.00000000       0.00000000       1.11313131       0.00000000       0.00000000     168.50306702
2
Properties=species:S:1:pos:R:3:forces:R:3 energy=175.0670497663492 pbc="F F F"
Np       0.00000000       0.00000000       0.00000000       0.00000000       0.00000000    -224.29228210
Np       0.00000000       0.00000000       1.17272727       0.00000000       0.00000000     224.29228210
2
Properties=species:S:1:pos:R:3:forces:R:3 energy=159.98236496959308 pbc="F F F"
Np       0.00000000       0.00000000       0.00000000       0.00000000       0.00000000    -281.68664551
Np       0.00000000       0.00000000       1.23232323       0.00000000       0.00000000     281.68664551
2
Properties=species:S:1:pos:R:3:forces:R:3 energy=141.58937677065296 pbc="F F F"
Np       0.00000000       0.00000000       0.00000000       0.00000000       0.00000000    -334.12091064
Np       0.00000000       0.00000000       1.29191919       0.00000000       0.00000000     334.12091064
2
Properties=species:S:1:pos:R:3:forces:R:3 energy=120.41220939106441 pbc="F F F"
Np       0.00000000       0.00000000       0.00000000       0.00000000       0.00000000    -373.75775146
Np       0.00000000       0.00000000       1.35151515       0.00000000       0.00000000     373.75775146
2
Properties=species:S:1:pos:R:3:forces:R:3 energy=97.4496041201139 pbc="F F F"
Np       0.00000000       0.00000000       0.00000000       0.00000000       0.00000000    -392.86315918
Np       0.00000000       0.00000000       1.41111111       0.00000000       0.00000000     392.86315918
2
Properties=species:S:1:pos:R:3:forces:R:3 energy=74.10755927648096 pbc="F F F"
Np       0.00000000       0.00000000       0.00000000       0.00000000       0.00000000    -385.87561035
Np       0.00000000       0.00000000       1.47070707       0.00000000       0.00000000     385.87561035
2
Properties=species:S:1:pos:R:3:forces:R:3 energy=51.99580860643527 pbc="F F F"
Np       0.00000000       0.00000000       0.00000000       0.00000000       0.00000000    -352.00595093
Np       0.00000000       0.00000000       1.53030303       0.00000000       0.00000000     352.00595093
2
Properties=species:S:1:pos:R:3:forces:R:3 energy=32.554446256172945 pbc="F F F"
Np       0.00000000       0.00000000       0.00000000       0.00000000       0.00000000    -298.09686279
Np       0.00000000       0.00000000       1.58989899       0.00000000       0.00000000     298.09686279
2
Properties=species:S:1:pos:R:3:forces:R:3 energy=16.603384397892995 pbc="F F F"
Np       0.00000000       0.00000000       0.00000000       0.00000000       0.00000000    -237.16906738
Np       0.00000000       0.00000000       1.64949495       0.00000000       0.00000000     237.16906738
2
Properties=species:S:1:pos:R:3:forces:R:3 energy=4.193298639158207 pbc="F F F"
Np       0.00000000       0.00000000       0.00000000       0.00000000       0.00000000    -177.97131348
Np       0.00000000       0.00000000       1.70909091       0.00000000       0.00000000     177.97131348
2
Properties=species:S:1:pos:R:3:forces:R:3 energy=-4.694853760698228 pbc="F F F"
Np       0.00000000       0.00000000       0.00000000       0.00000000       0.00000000    -123.75424194
Np       0.00000000       0.00000000       1.76868687       0.00000000       0.00000000     123.75424194
2
Properties=species:S:1:pos:R:3:forces:R:3 energy=-10.593059700483252 pbc="F F F"
Np       0.00000000       0.00000000       0.00000000       0.00000000       0.00000000     -75.00798798
Np       0.00000000       0.00000000       1.82828283       0.00000000       0.00000000      75.00798798
2
Properties=species:S:1:pos:R:3:forces:R:3 energy=-13.930361692248049 pbc="F F F"
Np       0.00000000       0.00000000       0.00000000       0.00000000       0.00000000     -40.40625000
Np       0.00000000       0.00000000       1.88787879       0.00000000       0.00000000      40.40625000
2
Properties=species:S:1:pos:R:3:forces:R:3 energy=-15.775030992816852 pbc="F F F"
Np       0.00000000       0.00000000       0.00000000       0.00000000       0.00000000     -23.70281219
Np       0.00000000       0.00000000       1.94747475       0.00000000       0.00000000      23.70281219
2
Properties=species:S:1:pos:R:3:forces:R:3 energy=-16.900833752361454 pbc="F F F"
Np       0.00000000       0.00000000       0.00000000       0.00000000       0.00000000     -14.56938839
Np       0.00000000       0.00000000       2.00707071       0.00000000       0.00000000      14.56938839
2
Properties=species:S:1:pos:R:3:forces:R:3 energy=-17.544053770696905 pbc="F F F"
Np       0.00000000       0.00000000       0.00000000       0.00000000       0.00000000      -7.30171394
Np       0.00000000       0.00000000       2.06666667       0.00000000       0.00000000       7.30171394
2
Properties=species:S:1:pos:R:3:forces:R:3 energy=-17.815800299895788 pbc="F F F"
Np       0.00000000       0.00000000       0.00000000       0.00000000       0.00000000      -2.22776508
Np       0.00000000       0.00000000       2.12626263       0.00000000       0.00000000       2.22776508
2
Properties=species:S:1:pos:R:3:forces:R:3 energy=-17.853077634716325 pbc="F F F"
Np       0.00000000       0.00000000       0.00000000       0.00000000       0.00000000       0.67871910
Np       0.00000000       0.00000000       2.18585859       0.00000000       0.00000000      -0.67871910
2
Properties=species:S:1:pos:R:3:forces:R:3 energy=-17.76290078934916 pbc="F F F"
Np       0.00000000       0.00000000       0.00000000       0.00000000       0.00000000       2.16352177
Np       0.00000000       0.00000000       2.24545455       0.00000000       0.00000000      -2.16352177
2
Properties=species:S:1:pos:R:3:forces:R:3 energy=-17.613079163481043 pbc="F F F"
Np       0.00000000       0.00000000       0.00000000       0.00000000       0.00000000       2.74067092
Np       0.00000000       0.00000000       2.30505051       0.00000000       0.00000000      -2.74067092
2
Properties=species:S:1:pos:R:3:forces:R:3 energy=-17.448667411581525 pbc="F F F"
Np       0.00000000       0.00000000       0.00000000       0.00000000       0.00000000       2.68984818
Np       0.00000000       0.00000000       2.36464646       0.00000000       0.00000000      -2.68984818
2
Properties=species:S:1:pos:R:3:forces:R:3 energy=-17.30096048638404 pbc="F F F"
Np       0.00000000       0.00000000       0.00000000       0.00000000       0.00000000       2.21195483
Np       0.00000000       0.00000000       2.42424242       0.00000000       0.00000000      -2.21195483
2
Properties=species:S:1:pos:R:3:forces:R:3 energy=-17.18964325880893 pbc="F F F"
Np       0.00000000       0.00000000       0.00000000       0.00000000       0.00000000       1.50147760
Np       0.00000000       0.00000000       2.48383838       0.00000000       0.00000000      -1.50147760
2
Properties=species:S:1:pos:R:3:forces:R:3 energy=-17.122662712933767 pbc="F F F"
Np       0.00000000       0.00000000       0.00000000       0.00000000       0.00000000       0.75648189
Np       0.00000000       0.00000000       2.54343434       0.00000000       0.00000000      -0.75648189
2
Properties=species:S:1:pos:R:3:forces:R:3 energy=-17.096676122236918 pbc="F F F"
Np       0.00000000       0.00000000       0.00000000       0.00000000       0.00000000       0.15037923
Np       0.00000000       0.00000000       2.60303030       0.00000000       0.00000000      -0.15037923
2
Properties=species:S:1:pos:R:3:forces:R:3 energy=-17.099748002550456 pbc="F F F"
Np       0.00000000       0.00000000       0.00000000       0.00000000       0.00000000      -0.20740199
Np       0.00000000       0.00000000       2.66262626       0.00000000       0.00000000       0.20740199
2
Properties=species:S:1:pos:R:3:forces:R:3 energy=-17.11591648208516 pbc="F F F"
Np       0.00000000       0.00000000       0.00000000       0.00000000       0.00000000      -0.29170415
Np       0.00000000       0.00000000       2.72222222       0.00000000       0.00000000       0.29170415
2
Properties=species:S:1:pos:R:3:forces:R:3 energy=-17.12995955025203 pbc="F F F"
Np       0.00000000       0.00000000       0.00000000       0.00000000       0.00000000      -0.14775188
Np       0.00000000       0.00000000       2.78181818       0.00000000       0.00000000       0.14775188
2
Properties=species:S:1:pos:R:3:forces:R:3 energy=-17.130561395776887 pbc="F F F"
Np       0.00000000       0.00000000       0.00000000       0.00000000       0.00000000       0.14549632
Np       0.00000000       0.00000000       2.84141414       0.00000000       0.00000000      -0.14549632
2
Properties=species:S:1:pos:R:3:forces:R:3 energy=-17.11124498614027 pbc="F F F"
Np       0.00000000       0.00000000       0.00000000       0.00000000       0.00000000       0.50836474
Np       0.00000000       0.00000000       2.90101010       0.00000000       0.00000000      -0.50836474
2
Properties=species:S:1:pos:R:3:forces:R:3 energy=-17.069923916676416 pbc="F F F"
Np       0.00000000       0.00000000       0.00000000       0.00000000       0.00000000       0.87384188
Np       0.00000000       0.00000000       2.96060606       0.00000000       0.00000000      -0.87384188
2
Properties=species:S:1:pos:R:3:forces:R:3 energy=-17.008129909034412 pbc="F F F"
Np       0.00000000       0.00000000       0.00000000       0.00000000       0.00000000       1.18740952
Np       0.00000000       0.00000000       3.02020202       0.00000000       0.00000000      -1.18740952
2
Properties=species:S:1:pos:R:3:forces:R:3 energy=-16.930246006342657 pbc="F F F"
Np       0.00000000       0.00000000       0.00000000       0.00000000       0.00000000       1.40858543
Np       0.00000000       0.00000000       3.07979798       0.00000000       0.00000000      -1.40858543
2
Properties=species:S:1:pos:R:3:forces:R:3 energy=-16.84245388149028 pbc="F F F"
Np       0.00000000       0.00000000       0.00000000       0.00000000       0.00000000       1.51914704
Np       0.00000000       0.00000000       3.13939394       0.00000000       0.00000000      -1.51914704
2
Properties=species:S:1:pos:R:3:forces:R:3 energy=-16.751198117366823 pbc="F F F"
Np       0.00000000       0.00000000       0.00000000       0.00000000       0.00000000       1.52863693
Np       0.00000000       0.00000000       3.19898990       0.00000000       0.00000000      -1.52863693
2
Properties=species:S:1:pos:R:3:forces:R:3 energy=-16.66165492269229 pbc="F F F"
Np       0.00000000       0.00000000       0.00000000       0.00000000       0.00000000       1.46766651
Np       0.00000000       0.00000000       3.25858586       0.00000000       0.00000000      -1.46766651
2
Properties=species:S:1:pos:R:3:forces:R:3 energy=-16.576955575026535 pbc="F F F"
Np       0.00000000       0.00000000       0.00000000       0.00000000       0.00000000       1.37148952
Np       0.00000000       0.00000000       3.31818182       0.00000000       0.00000000      -1.37148952
2
Properties=species:S:1:pos:R:3:forces:R:3 energy=-16.498375501709692 pbc="F F F"
Np       0.00000000       0.00000000       0.00000000       0.00000000       0.00000000       1.26517761
Np       0.00000000       0.00000000       3.37777778       0.00000000       0.00000000      -1.26517761
2
Properties=species:S:1:pos:R:3:forces:R:3 energy=-16.426146544282688 pbc="F F F"
Np       0.00000000       0.00000000       0.00000000       0.00000000       0.00000000       1.15902746
Np       0.00000000       0.00000000       3.43737374       0.00000000       0.00000000      -1.15902746
2
Properties=species:S:1:pos:R:3:forces:R:3 energy=-16.360214403977654 pbc="F F F"
Np       0.00000000       0.00000000       0.00000000       0.00000000       0.00000000       1.05359805
Np       0.00000000       0.00000000       3.49696970       0.00000000       0.00000000      -1.05359805
2
Properties=species:S:1:pos:R:3:forces:R:3 energy=-16.30058375777888 pbc="F F F"
Np       0.00000000       0.00000000       0.00000000       0.00000000       0.00000000       0.94735378
Np       0.00000000       0.00000000       3.55656566       0.00000000       0.00000000      -0.94735378
2
Properties=species:S:1:pos:R:3:forces:R:3 energy=-16.247299273635505 pbc="F F F"
Np       0.00000000       0.00000000       0.00000000       0.00000000       0.00000000       0.84108472
Np       0.00000000       0.00000000       3.61616162       0.00000000       0.00000000      -0.84108472
2
Properties=species:S:1:pos:R:3:forces:R:3 energy=-16.20026631969002 pbc="F F F"
Np       0.00000000       0.00000000       0.00000000       0.00000000       0.00000000       0.73826331
Np       0.00000000       0.00000000       3.67575758       0.00000000       0.00000000      -0.73826331
2
Properties=species:S:1:pos:R:3:forces:R:3 energy=-16.159144203440004 pbc="F F F"
Np       0.00000000       0.00000000       0.00000000       0.00000000       0.00000000       0.64352924
Np       0.00000000       0.00000000       3.73535354       0.00000000       0.00000000      -0.64352924
2
Properties=species:S:1:pos:R:3:forces:R:3 energy=-16.123311725421125 pbc="F F F"
Np       0.00000000       0.00000000       0.00000000       0.00000000       0.00000000       0.56136823
Np       0.00000000       0.00000000       3.79494949       0.00000000       0.00000000      -0.56136823
2
Properties=species:S:1:pos:R:3:forces:R:3 energy=-16.09190838994336 pbc="F F F"
Np       0.00000000       0.00000000       0.00000000       0.00000000       0.00000000       0.49549153
Np       0.00000000       0.00000000       3.85454545       0.00000000       0.00000000      -0.49549153
2
Properties=species:S:1:pos:R:3:forces:R:3 energy=-16.063877231736225 pbc="F F F"
Np       0.00000000       0.00000000       0.00000000       0.00000000       0.00000000       0.44850284
Np       0.00000000       0.00000000       3.91414141       0.00000000       0.00000000      -0.44850284
2
Properties=species:S:1:pos:R:3:forces:R:3 energy=-16.03805252864329 pbc="F F F"
Np       0.00000000       0.00000000       0.00000000       0.00000000       0.00000000       0.42145258
Np       0.00000000       0.00000000       3.97373737       0.00000000       0.00000000      -0.42145258
2
Properties=species:S:1:pos:R:3:forces:R:3 energy=-16.013263954863305 pbc="F F F"
Np       0.00000000       0.00000000       0.00000000       0.00000000       0.00000000       0.41345283
Np       0.00000000       0.00000000       4.03333333       0.00000000       0.00000000      -0.41345283
2
Properties=species:S:1:pos:R:3:forces:R:3 energy=-15.988449966823524 pbc="F F F"
Np       0.00000000       0.00000000       0.00000000       0.00000000       0.00000000       0.42165154
Np       0.00000000       0.00000000       4.09292929       0.00000000       0.00000000      -0.42165154
2
Properties=species:S:1:pos:R:3:forces:R:3 energy=-15.962770438119367 pbc="F F F"
Np       0.00000000       0.00000000       0.00000000       0.00000000       0.00000000       0.44168076
Np       0.00000000       0.00000000       4.15252525       0.00000000       0.00000000      -0.44168076
2
Properties=species:S:1:pos:R:3:forces:R:3 energy=-15.935672526398685 pbc="F F F"
Np       0.00000000       0.00000000       0.00000000       0.00000000       0.00000000       0.46837974
Np       0.00000000       0.00000000       4.21212121       0.00000000       0.00000000      -0.46837974
2
Properties=species:S:1:pos:R:3:forces:R:3 energy=-15.906915481565271 pbc="F F F"
Np       0.00000000       0.00000000       0.00000000       0.00000000       0.00000000       0.49651918
Np       0.00000000       0.00000000       4.27171717       0.00000000       0.00000000      -0.49651918
2
Properties=species:S:1:pos:R:3:forces:R:3 energy=-15.876557383037465 pbc="F F F"
Np       0.00000000       0.00000000       0.00000000       0.00000000       0.00000000       0.52140415
Np       0.00000000       0.00000000       4.33131313       0.00000000       0.00000000      -0.52140415
2
Properties=species:S:1:pos:R:3:forces:R:3 energy=-15.84490751938876 pbc="F F F"
Np       0.00000000       0.00000000       0.00000000       0.00000000       0.00000000       0.53933966
Np       0.00000000       0.00000000       4.39090909       0.00000000       0.00000000      -0.53933966
2
Properties=species:S:1:pos:R:3:forces:R:3 energy=-15.812458639457489 pbc="F F F"
Np       0.00000000       0.00000000       0.00000000       0.00000000       0.00000000       0.54794025
Np       0.00000000       0.00000000       4.45050505       0.00000000       0.00000000      -0.54794025
2
Properties=species:S:1:pos:R:3:forces:R:3 energy=-15.779801349741525 pbc="F F F"
Np       0.00000000       0.00000000       0.00000000       0.00000000       0.00000000       0.54631144
Np       0.00000000       0.00000000       4.51010101       0.00000000       0.00000000      -0.54631144
2
Properties=species:S:1:pos:R:3:forces:R:3 energy=-15.7475343042858 pbc="F F F"
Np       0.00000000       0.00000000       0.00000000       0.00000000       0.00000000       0.53505284
Np       0.00000000       0.00000000       4.56969697       0.00000000       0.00000000      -0.53505284
2
Properties=species:S:1:pos:R:3:forces:R:3 energy=-15.716182480130726 pbc="F F F"
Np       0.00000000       0.00000000       0.00000000       0.00000000       0.00000000       0.51601154
Np       0.00000000       0.00000000       4.62929293       0.00000000       0.00000000      -0.51601154
2
Properties=species:S:1:pos:R:3:forces:R:3 energy=-15.686133078392384 pbc="F F F"
Np       0.00000000       0.00000000       0.00000000       0.00000000       0.00000000       0.49181271
Np       0.00000000       0.00000000       4.68888889       0.00000000       0.00000000      -0.49181271
2
Properties=species:S:1:pos:R:3:forces:R:3 energy=-15.657610028481741 pbc="F F F"
Np       0.00000000       0.00000000       0.00000000       0.00000000       0.00000000       0.46516722
Np       0.00000000       0.00000000       4.74848485       0.00000000       0.00000000      -0.46516722
2
Properties=species:S:1:pos:R:3:forces:R:3 energy=-15.630694804212872 pbc="F F F"
Np       0.00000000       0.00000000       0.00000000       0.00000000       0.00000000       0.43819451
Np       0.00000000       0.00000000       4.80808081       0.00000000       0.00000000      -0.43819451
2
Properties=species:S:1:pos:R:3:forces:R:3 energy=-15.605365663834103 pbc="F F F"
Np       0.00000000       0.00000000       0.00000000       0.00000000       0.00000000       0.41195893
Np       0.00000000       0.00000000       4.86767677       0.00000000       0.00000000      -0.41195893
2
Properties=species:S:1:pos:R:3:forces:R:3 energy=-15.581576811331912 pbc="F F F"
Np       0.00000000       0.00000000       0.00000000       0.00000000       0.00000000       0.38645166
Np       0.00000000       0.00000000       4.92727273       0.00000000       0.00000000      -0.38645166
2
Properties=species:S:1:pos:R:3:forces:R:3 energy=-15.55930215774354 pbc="F F F"
Np       0.00000000       0.00000000       0.00000000       0.00000000       0.00000000       0.36103284
Np       0.00000000       0.00000000       4.98686869       0.00000000       0.00000000      -0.36103284
2
Properties=species:S:1:pos:R:3:forces:R:3 energy=-15.53855352966801 pbc="F F F"
Np       0.00000000       0.00000000       0.00000000       0.00000000       0.00000000       0.33531976
Np       0.00000000       0.00000000       5.04646465       0.00000000       0.00000000      -0.33531976
2
Properties=species:S:1:pos:R:3:forces:R:3 energy=-15.51932516608646 pbc="F F F"
Np       0.00000000       0.00000000       0.00000000       0.00000000       0.00000000       0.31024560
Np       0.00000000       0.00000000       5.10606061       0.00000000       0.00000000      -0.31024560
2
Properties=species:S:1:pos:R:3:forces:R:3 energy=-15.50150323967932 pbc="F F F"
Np       0.00000000       0.00000000       0.00000000       0.00000000       0.00000000       0.28865102
Np       0.00000000       0.00000000       5.16565657       0.00000000       0.00000000      -0.28865102
2
Properties=species:S:1:pos:R:3:forces:R:3 energy=-15.484776962374267 pbc="F F F"
Np       0.00000000       0.00000000       0.00000000       0.00000000       0.00000000       0.27408078
Np       0.00000000       0.00000000       5.22525253       0.00000000       0.00000000      -0.27408078
2
Properties=species:S:1:pos:R:3:forces:R:3 energy=-15.46868050266664 pbc="F F F"
Np       0.00000000       0.00000000       0.00000000       0.00000000       0.00000000       0.26716575
Np       0.00000000       0.00000000       5.28484848       0.00000000       0.00000000      -0.26716575
2
Properties=species:S:1:pos:R:3:forces:R:3 energy=-15.452877129880571 pbc="F F F"
Np       0.00000000       0.00000000       0.00000000       0.00000000       0.00000000       0.26294985
Np       0.00000000       0.00000000       5.34444444       0.00000000       0.00000000      -0.26294985
2
Properties=species:S:1:pos:R:3:forces:R:3 energy=-15.437430859293704 pbc="F F F"
Np       0.00000000       0.00000000       0.00000000       0.00000000       0.00000000       0.25427192
Np       0.00000000       0.00000000       5.40404040       0.00000000       0.00000000      -0.25427192
2
Properties=species:S:1:pos:R:3:forces:R:3 energy=-15.42269002150721 pbc="F F F"
Np       0.00000000       0.00000000       0.00000000       0.00000000       0.00000000       0.23975080
Np       0.00000000       0.00000000       5.46363636       0.00000000       0.00000000      -0.23975080
2
Properties=species:S:1:pos:R:3:forces:R:3 energy=-15.408817972318746 pbc="F F F"
Np       0.00000000       0.00000000       0.00000000       0.00000000       0.00000000       0.22739802
Np       0.00000000       0.00000000       5.52323232       0.00000000       0.00000000      -0.22739802
2
Properties=species:S:1:pos:R:3:forces:R:3 energy=-15.395309440459854 pbc="F F F"
Np       0.00000000       0.00000000       0.00000000       0.00000000       0.00000000       0.22885256
Np       0.00000000       0.00000000       5.58282828       0.00000000       0.00000000      -0.22885256
2
Properties=species:S:1:pos:R:3:forces:R:3 energy=-15.381225017436215 pbc="F F F"
Np       0.00000000       0.00000000       0.00000000       0.00000000       0.00000000       0.24549550
Np       0.00000000       0.00000000       5.64242424       0.00000000       0.00000000      -0.24549550
2
Properties=species:S:1:pos:R:3:forces:R:3 energy=-15.366100943818548 pbc="F F F"
Np       0.00000000       0.00000000       0.00000000       0.00000000       0.00000000       0.25877941
Np       0.00000000       0.00000000       5.70202020       0.00000000       0.00000000      -0.25877941
2
Properties=species:S:1:pos:R:3:forces:R:3 energy=-15.35099707060347 pbc="F F F"
Np       0.00000000       0.00000000       0.00000000       0.00000000       0.00000000       0.24211487
Np       0.00000000       0.00000000       5.76161616       0.00000000       0.00000000      -0.24211487
2
Properties=species:S:1:pos:R:3:forces:R:3 energy=-15.338009417596206 pbc="F F F"
Np       0.00000000       0.00000000       0.00000000       0.00000000       0.00000000       0.18816644
Np       0.00000000       0.00000000       5.82121212       0.00000000       0.00000000      -0.18816644
2
Properties=species:S:1:pos:R:3:forces:R:3 energy=-15.328933153697214 pbc="F F F"
Np       0.00000000       0.00000000       0.00000000       0.00000000       0.00000000       0.11706910
Np       0.00000000       0.00000000       5.88080808       0.00000000       0.00000000      -0.11706910
2
Properties=species:S:1:pos:R:3:forces:R:3 energy=-15.323761380479631 pbc="F F F"
Np       0.00000000       0.00000000       0.00000000       0.00000000       0.00000000       0.05984565
Np       0.00000000       0.00000000       5.94040404       0.00000000       0.00000000      -0.05984565
2
Properties=species:S:1:pos:R:3:forces:R:3 energy=-15.321070460962607 pbc="F F F"
Np       0.00000000       0.00000000       0.00000000       0.00000000       0.00000000       0.03771560
Np       0.00000000       0.00000000       6.00000000       0.00000000       0.00000000      -0.03771560
