2
Properties=species:S:1:pos:R:3:forces:R:3 energy=2130.1282179670907 pbc="F F F"
O        0.00000000       0.00000000       0.00000000       0.00000000       0.00000000  -40562.56250000
O        0.00000000       0.00000000       0.10000000       0.00000000       0.00000000   40562.56250000
2
Properties=species:S:1:pos:R:3:forces:R:3 energy=822.8447096663095 pbc="F F F"
O        0.00000000       0.00000000       0.00000000       0.00000000       0.00000000  -11101.90917969
O        0.00000000       0.00000000       0.15959596       0.00000000       0.00000000   11101.90917969
2
Properties=species:S:1:pos:R:3:forces:R:3 energy=410.8155653807841 pbc="F F F"
O        0.00000000       0.00000000       0.00000000       0.00000000       0.00000000   -4097.88818359
O        0.00000000       0.00000000       0.21919192       0.00000000       0.00000000    4097.88818359
2
Properties=species:S:1:pos:R:3:forces:R:3 energy=248.1103957038417 pbc="F F F"
O        0.00000000       0.00000000       0.00000000       0.00000000       0.00000000   -1734.55615234
O        0.00000000       0.00000000       0.27878788       0.00000000       0.00000000    1734.55615234
2
Properties=species:S:1:pos:R:3:forces:R:3 energy=177.60853413553585 pbc="F F F"
O        0.00000000       0.00000000       0.00000000       0.00000000       0.00000000    -762.66204834
O        0.00000000       0.00000000       0.33838384       0.00000000       0.00000000     762.66204834
2
Properties=species:S:1:pos:R:3:forces:R:3 energy=146.49477987099448 pbc="F F F"
O        0.00000000       0.00000000       0.00000000       0.00000000       0.00000000    -348.78915405
O        0.00000000       0.00000000       0.39797980       0.00000000       0.00000000     348.78915405
2
Properties=species:S:1:pos:R:3:forces:R:3 energy=129.25726158024648 pbc="F F F"
O        0.00000000       0.00000000       0.00000000       0.00000000       0.00000000    -276.05026245
O        0.00000000       0.00000000       0.45757576       0.00000000       0.00000000     276.05026245
2
Properties=species:S:1:pos:R:3:forces:R:3 energy=109.94050441373605 pbc="F F F"
O        0.00000000       0.00000000       0.00000000       0.00000000       0.00000000    -383.72354126
O        0.00000000       0.00000000       0.51717172       0.00000000       0.00000000     383.72354126
2
Properties=species:S:1:pos:R:3:forces:R:3 energy=84.5871719583532 pbc="F F F"
O        0.00000000       0.00000000       0.00000000       0.00000000       0.00000000    -443.90380859
O        0.00000000       0.00000000       0.57676768       0.00000000       0.00000000     443.90380859
2
Properties=species:S:1:pos:R:3:forces:R:3 energy=59.03218320418321 pbc="F F F"
O        0.00000000       0.00000000       0.00000000       0.00000000       0.00000000    -404.63293457
O        0.00000000       0.00000000       0.63636364       0.00000000       0.00000000     404.63293457
2
Properties=species:S:1:pos:R:3:forces:R:3 energy=37.3811175504135 pbc="F F F"
O        0.00000000       0.00000000       0.00000000       0.00000000       0.00000000    -317.47177124
O        0.00000000       0.00000000       0.69595960       0.00000000       0.00000000     317.47177124
2
Properties=species:S:1:pos:R:3:forces:R:3 energy=21.19868754759267 pbc="F F F"
O        0.00000000       0.00000000       0.00000000       0.00000000       0.00000000    -226.82975769
O        0.00000000       0.00000000       0.75555556       0.00000000       0.00000000     226.82975769
2
Properties=species:S:1:pos:R:3:forces:R:3 energy=10.01781025643965 pbc="F F F"
O        0.00000000       0.00000000       0.00000000       0.00000000       0.00000000    -153.34675598
O        0.00000000       0.00000000       0.81515152       0.00000000       0.00000000     153.34675598
2
Properties=species:S:1:pos:R:3:forces:R:3 energy=2.410421615784929 pbc="F F F"
O        0.00000000       0.00000000       0.00000000       0.00000000       0.00000000    -104.38679504
O        0.00000000       0.00000000       0.87474747       0.00000000       0.00000000     104.38679504
2
Properties=species:S:1:pos:R:3:forces:R:3 energy=-2.6257189759490482 pbc="F F F"
O        0.00000000       0.00000000       0.00000000       0.00000000       0.00000000     -66.43106842
O        0.00000000       0.00000000       0.93434343       0.00000000       0.00000000      66.43106842
2
Properties=species:S:1:pos:R:3:forces:R:3 energy=-5.751548280706218 pbc="F F F"
O        0.00000000       0.00000000       0.00000000       0.00000000       0.00000000     -40.40828705
O        0.00000000       0.00000000       0.99393939       0.00000000       0.00000000      40.40828705
2
Properties=species:S:1:pos:R:3:forces:R:3 energy=-7.627334055521691 pbc="F F F"
O        0.00000000       0.00000000       0.00000000       0.00000000       0.00000000     -23.75230789
O        0.00000000       0.00000000       1.05353535       0.00000000       0.00000000      23.75230789
2
Properties=species:S:1:pos:R:3:forces:R:3 energy=-8.697412894546494 pbc="F F F"
O        0.00000000       0.00000000       0.00000000       0.00000000       0.00000000     -12.89935017
O        0.00000000       0.00000000       1.11313131       0.00000000       0.00000000      12.89935017
2
Properties=species:S:1:pos:R:3:forces:R:3 energy=-9.231068581174853 pbc="F F F"
O        0.00000000       0.00000000       0.00000000       0.00000000       0.00000000      -5.43106890
O        0.00000000       0.00000000       1.17272727       0.00000000       0.00000000       5.43106890
2
Properties=species:S:1:pos:R:3:forces:R:3 energy=-9.388682630534323 pbc="F F F"
O        0.00000000       0.00000000       0.00000000       0.00000000       0.00000000      -0.20164958
O        0.00000000       0.00000000       1.23232323       0.00000000       0.00000000       0.20164958
2
Properties=species:S:1:pos:R:3:forces:R:3 energy=-9.292250626243582 pbc="F F F"
O        0.00000000       0.00000000       0.00000000       0.00000000       0.00000000       3.17196941
O        0.00000000       0.00000000       1.29191919       0.00000000       0.00000000      -3.17196941
2
Properties=species:S:1:pos:R:3:forces:R:3 energy=-9.035934020717635 pbc="F F F"
O        0.00000000       0.00000000       0.00000000       0.00000000       0.00000000       5.27133560
O        0.00000000       0.00000000       1.35151515       0.00000000       0.00000000      -5.27133560
2
Properties=species:S:1:pos:R:3:forces:R:3 energy=-8.67799833320142 pbc="F F F"
O        0.00000000       0.00000000       0.00000000       0.00000000       0.00000000       6.65255642
O        0.00000000       0.00000000       1.41111111       0.00000000       0.00000000      -6.65255642
2
Properties=species:S:1:pos:R:3:forces:R:3 energy=-8.250931277567206 pbc="F F F"
O        0.00000000       0.00000000       0.00000000       0.00000000       0.00000000       7.62752914
O        0.00000000       0.00000000       1.47070707       0.00000000       0.00000000      -7.62752914
2
Properties=species:S:1:pos:R:3:forces:R:3 energy=-7.77499396146864 pbc="F F F"
O        0.00000000       0.00000000       0.00000000       0.00000000       0.00000000       8.28625774
O        0.00000000       0.00000000       1.53030303       0.00000000       0.00000000      -8.28625774
2
Properties=species:S:1:pos:R:3:forces:R:3 energy=-7.270699996830473 pbc="F F F"
O        0.00000000       0.00000000       0.00000000       0.00000000       0.00000000       8.58339882
O        0.00000000       0.00000000       1.58989899       0.00000000       0.00000000      -8.58339882
2
Properties=species:S:1:pos:R:3:forces:R:3 energy=-6.7554426004746455 pbc="F F F"
O        0.00000000       0.00000000       0.00000000       0.00000000       0.00000000       8.70338058
O        0.00000000       0.00000000       1.64949495       0.00000000       0.00000000      -8.70338058
2
Properties=species:S:1:pos:R:3:forces:R:3 energy=-6.233010255103097 pbc="F F F"
O        0.00000000       0.00000000       0.00000000       0.00000000       0.00000000       8.82416344
O        0.00000000       0.00000000       1.70909091       0.00000000       0.00000000      -8.82416344
2
Properties=species:S:1:pos:R:3:forces:R:3 energy=-5.707104372651529 pbc="F F F"
O        0.00000000       0.00000000       0.00000000       0.00000000       0.00000000       8.76736450
O        0.00000000       0.00000000       1.76868687       0.00000000       0.00000000      -8.76736450
2
Properties=species:S:1:pos:R:3:forces:R:3 energy=-5.198195508551254 pbc="F F F"
O        0.00000000       0.00000000       0.00000000       0.00000000       0.00000000       8.20459843
O        0.00000000       0.00000000       1.82828283       0.00000000       0.00000000      -8.20459843
2
Properties=species:S:1:pos:R:3:forces:R:3 energy=-4.741973935376787 pbc="F F F"
O        0.00000000       0.00000000       0.00000000       0.00000000       0.00000000       7.01436996
O        0.00000000       0.00000000       1.88787879       0.00000000       0.00000000      -7.01436996
2
Properties=species:S:1:pos:R:3:forces:R:3 energy=-4.368691715486226 pbc="F F F"
O        0.00000000       0.00000000       0.00000000       0.00000000       0.00000000       5.50101709
O        0.00000000       0.00000000       1.94747475       0.00000000       0.00000000      -5.50101709
2
Properties=species:S:1:pos:R:3:forces:R:3 energy=-4.082980826950049 pbc="F F F"
O        0.00000000       0.00000000       0.00000000       0.00000000       0.00000000       4.14525747
O        0.00000000       0.00000000       2.00707071       0.00000000       0.00000000      -4.14525747
2
Properties=species:S:1:pos:R:3:forces:R:3 energy=-3.8662202120852984 pbc="F F F"
O        0.00000000       0.00000000       0.00000000       0.00000000       0.00000000       3.20080376
O        0.00000000       0.00000000       2.06666667       0.00000000       0.00000000      -3.20080376
2
Properties=species:S:1:pos:R:3:forces:R:3 energy=-3.6941945651400334 pbc="F F F"
O        0.00000000       0.00000000       0.00000000       0.00000000       0.00000000       2.61880922
O        0.00000000       0.00000000       2.12626263       0.00000000       0.00000000      -2.61880922
2
Properties=species:S:1:pos:R:3:forces:R:3 energy=-3.5503565871037814 pbc="F F F"
O        0.00000000       0.00000000       0.00000000       0.00000000       0.00000000       2.22574925
O        0.00000000       0.00000000       2.18585859       0.00000000       0.00000000      -2.22574925
2
Properties=species:S:1:pos:R:3:forces:R:3 energy=-3.428009722686519 pbc="F F F"
O        0.00000000       0.00000000       0.00000000       0.00000000       0.00000000       1.88061571
O        0.00000000       0.00000000       2.24545455       0.00000000       0.00000000      -1.88061571
2
Properties=species:S:1:pos:R:3:forces:R:3 energy=-3.3264864846859292 pbc="F F F"
O        0.00000000       0.00000000       0.00000000       0.00000000       0.00000000       1.52326977
O        0.00000000       0.00000000       2.30505051       0.00000000       0.00000000      -1.52326977
2
Properties=species:S:1:pos:R:3:forces:R:3 energy=-3.2466568340666795 pbc="F F F"
O        0.00000000       0.00000000       0.00000000       0.00000000       0.00000000       1.15632451
O        0.00000000       0.00000000       2.36464646       0.00000000       0.00000000      -1.15632451
2
Properties=species:S:1:pos:R:3:forces:R:3 energy=-3.188249891764836 pbc="F F F"
O        0.00000000       0.00000000       0.00000000       0.00000000       0.00000000       0.81000078
O        0.00000000       0.00000000       2.42424242       0.00000000       0.00000000      -0.81000078
2
Properties=species:S:1:pos:R:3:forces:R:3 energy=-3.1491022761839558 pbc="F F F"
O        0.00000000       0.00000000       0.00000000       0.00000000       0.00000000       0.51394349
O        0.00000000       0.00000000       2.48383838       0.00000000       0.00000000      -0.51394349
2
Properties=species:S:1:pos:R:3:forces:R:3 energy=-3.1256762366606714 pbc="F F F"
O        0.00000000       0.00000000       0.00000000       0.00000000       0.00000000       0.28358898
O        0.00000000       0.00000000       2.54343434       0.00000000       0.00000000      -0.28358898
2
Properties=species:S:1:pos:R:3:forces:R:3 energy=-3.1139866692497513 pbc="F F F"
O        0.00000000       0.00000000       0.00000000       0.00000000       0.00000000       0.11906164
O        0.00000000       0.00000000       2.60303030       0.00000000       0.00000000      -0.11906164
2
Properties=species:S:1:pos:R:3:forces:R:3 energy=-3.1103724380494 pbc="F F F"
O        0.00000000       0.00000000       0.00000000       0.00000000       0.00000000       0.01046577
O        0.00000000       0.00000000       2.66262626       0.00000000       0.00000000      -0.01046577
2
Properties=species:S:1:pos:R:3:forces:R:3 energy=-3.1118995719047855 pbc="F F F"
O        0.00000000       0.00000000       0.00000000       0.00000000       0.00000000      -0.05584193
O        0.00000000       0.00000000       2.72222222       0.00000000       0.00000000       0.05584193
2
Properties=species:S:1:pos:R:3:forces:R:3 energy=-3.1164499846298677 pbc="F F F"
O        0.00000000       0.00000000       0.00000000       0.00000000       0.00000000      -0.09297511
O        0.00000000       0.00000000       2.78181818       0.00000000       0.00000000       0.09297511
2
Properties=species:S:1:pos:R:3:forces:R:3 energy=-3.1226132353483482 pbc="F F F"
O        0.00000000       0.00000000       0.00000000       0.00000000       0.00000000      -0.11147260
O        0.00000000       0.00000000       2.84141414       0.00000000       0.00000000       0.11147260
2
Properties=species:S:1:pos:R:3:forces:R:3 energy=-3.1295191784500322 pbc="F F F"
O        0.00000000       0.00000000       0.00000000       0.00000000       0.00000000      -0.11890265
O        0.00000000       0.00000000       2.90101010       0.00000000       0.00000000       0.11890265
2
Properties=species:S:1:pos:R:3:forces:R:3 energy=-3.1366655568638273 pbc="F F F"
O        0.00000000       0.00000000       0.00000000       0.00000000       0.00000000      -0.12021915
O        0.00000000       0.00000000       2.96060606       0.00000000       0.00000000       0.12021915
2
Properties=species:S:1:pos:R:3:forces:R:3 energy=-3.1437849644906044 pbc="F F F"
O        0.00000000       0.00000000       0.00000000       0.00000000       0.00000000      -0.11836963
O        0.00000000       0.00000000       3.02020202       0.00000000       0.00000000       0.11836963
2
Properties=species:S:1:pos:R:3:forces:R:3 energy=-3.150742031566762 pbc="F F F"
O        0.00000000       0.00000000       0.00000000       0.00000000       0.00000000      -0.11489116
O        0.00000000       0.00000000       3.07979798       0.00000000       0.00000000       0.11489116
2
Properties=species:S:1:pos:R:3:forces:R:3 energy=-3.15746090621438 pbc="F F F"
O        0.00000000       0.00000000       0.00000000       0.00000000       0.00000000      -0.11042879
O        0.00000000       0.00000000       3.13939394       0.00000000       0.00000000       0.11042879
2
Properties=species:S:1:pos:R:3:forces:R:3 energy=-3.1638877649115473 pbc="F F F"
O        0.00000000       0.00000000       0.00000000       0.00000000       0.00000000      -0.10513935
O        0.00000000       0.00000000       3.19898990       0.00000000       0.00000000       0.10513935
2
Properties=species:S:1:pos:R:3:forces:R:3 energy=-3.169975006382097 pbc="F F F"
O        0.00000000       0.00000000       0.00000000       0.00000000       0.00000000      -0.09897368
O        0.00000000       0.00000000       3.25858586       0.00000000       0.00000000       0.09897368
2
Properties=species:S:1:pos:R:3:forces:R:3 energy=-3.175665701326946 pbc="F F F"
O        0.00000000       0.00000000       0.00000000       0.00000000       0.00000000      -0.09186213
O        0.00000000       0.00000000       3.31818182       0.00000000       0.00000000       0.09186213
2
Properties=species:S:1:pos:R:3:forces:R:3 energy=-3.180904494342398 pbc="F F F"
O        0.00000000       0.00000000       0.00000000       0.00000000       0.00000000      -0.08380421
O        0.00000000       0.00000000       3.37777778       0.00000000       0.00000000       0.08380421
2
Properties=species:S:1:pos:R:3:forces:R:3 energy=-3.1856375528390166 pbc="F F F"
O        0.00000000       0.00000000       0.00000000       0.00000000       0.00000000      -0.07488588
O        0.00000000       0.00000000       3.43737374       0.00000000       0.00000000       0.07488588
2
Properties=species:S:1:pos:R:3:forces:R:3 energy=-3.1898170534370696 pbc="F F F"
O        0.00000000       0.00000000       0.00000000       0.00000000       0.00000000      -0.06526610
O        0.00000000       0.00000000       3.49696970       0.00000000       0.00000000       0.06526610
2
Properties=species:S:1:pos:R:3:forces:R:3 energy=-3.1934066382713833 pbc="F F F"
O        0.00000000       0.00000000       0.00000000       0.00000000       0.00000000      -0.05513967
O        0.00000000       0.00000000       3.55656566       0.00000000       0.00000000       0.05513967
2
Properties=species:S:1:pos:R:3:forces:R:3 energy=-3.196382599560661 pbc="F F F"
O        0.00000000       0.00000000       0.00000000       0.00000000       0.00000000      -0.04469767
O        0.00000000       0.00000000       3.61616162       0.00000000       0.00000000       0.04469767
2
Properties=species:S:1:pos:R:3:forces:R:3 energy=-3.1987321912745195 pbc="F F F"
O        0.00000000       0.00000000       0.00000000       0.00000000       0.00000000      -0.03412167
O        0.00000000       0.00000000       3.67575758       0.00000000       0.00000000       0.03412167
2
Properties=species:S:1:pos:R:3:forces:R:3 energy=-3.200450788107414 pbc="F F F"
O        0.00000000       0.00000000       0.00000000       0.00000000       0.00000000      -0.02358271
O        0.00000000       0.00000000       3.73535354       0.00000000       0.00000000       0.02358271
2
Properties=species:S:1:pos:R:3:forces:R:3 energy=-3.201546663155702 pbc="F F F"
O        0.00000000       0.00000000       0.00000000       0.00000000       0.00000000      -0.01326297
O        0.00000000       0.00000000       3.79494949       0.00000000       0.00000000       0.01326297
2
Properties=species:S:1:pos:R:3:forces:R:3 energy=-3.2020398185934655 pbc="F F F"
O        0.00000000       0.00000000       0.00000000       0.00000000       0.00000000      -0.00337268
O        0.00000000       0.00000000       3.85454545       0.00000000       0.00000000       0.00337268
2
Properties=species:S:1:pos:R:3:forces:R:3 energy=-3.201962961521585 pbc="F F F"
O        0.00000000       0.00000000       0.00000000       0.00000000       0.00000000       0.00583708
O        0.00000000       0.00000000       3.91414141       0.00000000       0.00000000      -0.00583708
2
Properties=species:S:1:pos:R:3:forces:R:3 energy=-3.201363200616236 pbc="F F F"
O        0.00000000       0.00000000       0.00000000       0.00000000       0.00000000       0.01411054
O        0.00000000       0.00000000       3.97373737       0.00000000       0.00000000      -0.01411054
2
Properties=species:S:1:pos:R:3:forces:R:3 energy=-3.2003032637623505 pbc="F F F"
O        0.00000000       0.00000000       0.00000000       0.00000000       0.00000000       0.02123117
O        0.00000000       0.00000000       4.03333333       0.00000000       0.00000000      -0.02123117
2
Properties=species:S:1:pos:R:3:forces:R:3 energy=-3.198857229089927 pbc="F F F"
O        0.00000000       0.00000000       0.00000000       0.00000000       0.00000000       0.02708411
O        0.00000000       0.00000000       4.09292929       0.00000000       0.00000000      -0.02708411
2
Properties=species:S:1:pos:R:3:forces:R:3 energy=-3.1971000585132034 pbc="F F F"
O        0.00000000       0.00000000       0.00000000       0.00000000       0.00000000       0.03169945
O        0.00000000       0.00000000       4.15252525       0.00000000       0.00000000      -0.03169945
2
Properties=species:S:1:pos:R:3:forces:R:3 energy=-3.1951004641802188 pbc="F F F"
O        0.00000000       0.00000000       0.00000000       0.00000000       0.00000000       0.03525230
O        0.00000000       0.00000000       4.21212121       0.00000000       0.00000000      -0.03525230
2
Properties=species:S:1:pos:R:3:forces:R:3 energy=-3.1929137723485153 pbc="F F F"
O        0.00000000       0.00000000       0.00000000       0.00000000       0.00000000       0.03803814
O        0.00000000       0.00000000       4.27171717       0.00000000       0.00000000      -0.03803814
2
Properties=species:S:1:pos:R:3:forces:R:3 energy=-3.190575025085457 pbc="F F F"
O        0.00000000       0.00000000       0.00000000       0.00000000       0.00000000       0.04039456
O        0.00000000       0.00000000       4.33131313       0.00000000       0.00000000      -0.04039456
2
Properties=species:S:1:pos:R:3:forces:R:3 energy=-3.1881011348459474 pbc="F F F"
O        0.00000000       0.00000000       0.00000000       0.00000000       0.00000000       0.04262334
O        0.00000000       0.00000000       4.39090909       0.00000000       0.00000000      -0.04262334
2
Properties=species:S:1:pos:R:3:forces:R:3 energy=-3.1854928044923483 pbc="F F F"
O        0.00000000       0.00000000       0.00000000       0.00000000       0.00000000       0.04492872
O        0.00000000       0.00000000       4.45050505       0.00000000       0.00000000      -0.04492872
2
Properties=species:S:1:pos:R:3:forces:R:3 energy=-3.1827428777854228 pbc="F F F"
O        0.00000000       0.00000000       0.00000000       0.00000000       0.00000000       0.04739263
O        0.00000000       0.00000000       4.51010101       0.00000000       0.00000000      -0.04739263
2
Properties=species:S:1:pos:R:3:forces:R:3 energy=-3.1798418249915423 pbc="F F F"
O        0.00000000       0.00000000       0.00000000       0.00000000       0.00000000       0.04998287
O        0.00000000       0.00000000       4.56969697       0.00000000       0.00000000      -0.04998287
2
Properties=species:S:1:pos:R:3:forces:R:3 energy=-3.1767849061314615 pbc="F F F"
O        0.00000000       0.00000000       0.00000000       0.00000000       0.00000000       0.05259861
O        0.00000000       0.00000000       4.62929293       0.00000000       0.00000000      -0.05259861
2
Properties=species:S:1:pos:R:3:forces:R:3 energy=-3.1735743136786985 pbc="F F F"
O        0.00000000       0.00000000       0.00000000       0.00000000       0.00000000       0.05512039
O        0.00000000       0.00000000       4.68888889       0.00000000       0.00000000      -0.05512039
2
Properties=species:S:1:pos:R:3:forces:R:3 energy=-3.1702182252208657 pbc="F F F"
O        0.00000000       0.00000000       0.00000000       0.00000000       0.00000000       0.05745904
O        0.00000000       0.00000000       4.74848485       0.00000000       0.00000000      -0.05745904
2
Properties=species:S:1:pos:R:3:forces:R:3 energy=-3.1667303210788234 pbc="F F F"
O        0.00000000       0.00000000       0.00000000       0.00000000       0.00000000       0.05957827
O        0.00000000       0.00000000       4.80808081       0.00000000       0.00000000      -0.05957827
2
Properties=species:S:1:pos:R:3:forces:R:3 energy=-3.1631214478729475 pbc="F F F"
O        0.00000000       0.00000000       0.00000000       0.00000000       0.00000000       0.06149222
O        0.00000000       0.00000000       4.86767677       0.00000000       0.00000000      -0.06149222
2
Properties=species:S:1:pos:R:3:forces:R:3 energy=-3.159403904959341 pbc="F F F"
O        0.00000000       0.00000000       0.00000000       0.00000000       0.00000000       0.06322353
O        0.00000000       0.00000000       4.92727273       0.00000000       0.00000000      -0.06322353
2
Properties=species:S:1:pos:R:3:forces:R:3 energy=-3.155589775796763 pbc="F F F"
O        0.00000000       0.00000000       0.00000000       0.00000000       0.00000000       0.06473436
O        0.00000000       0.00000000       4.98686869       0.00000000       0.00000000      -0.06473436
2
Properties=species:S:1:pos:R:3:forces:R:3 energy=-3.1516954584441024 pbc="F F F"
O        0.00000000       0.00000000       0.00000000       0.00000000       0.00000000       0.06590183
O        0.00000000       0.00000000       5.04646465       0.00000000       0.00000000      -0.06590183
2
Properties=species:S:1:pos:R:3:forces:R:3 energy=-3.147743807664794 pbc="F F F"
O        0.00000000       0.00000000       0.00000000       0.00000000       0.00000000       0.06664476
O        0.00000000       0.00000000       5.10606061       0.00000000       0.00000000      -0.06664476
2
Properties=species:S:1:pos:R:3:forces:R:3 energy=-3.143753647033696 pbc="F F F"
O        0.00000000       0.00000000       0.00000000       0.00000000       0.00000000       0.06728944
O        0.00000000       0.00000000       5.16565657       0.00000000       0.00000000      -0.06728944
2
Properties=species:S:1:pos:R:3:forces:R:3 energy=-3.139705671664973 pbc="F F F"
O        0.00000000       0.00000000       0.00000000       0.00000000       0.00000000       0.06882263
O        0.00000000       0.00000000       5.22525253       0.00000000       0.00000000      -0.06882263
2
Properties=species:S:1:pos:R:3:forces:R:3 energy=-3.135515982116404 pbc="F F F"
O        0.00000000       0.00000000       0.00000000       0.00000000       0.00000000       0.07204822
O        0.00000000       0.00000000       5.28484848       0.00000000       0.00000000      -0.07204822
2
Properties=species:S:1:pos:R:3:forces:R:3 energy=-3.131107372732468 pbc="F F F"
O        0.00000000       0.00000000       0.00000000       0.00000000       0.00000000       0.07572377
O        0.00000000       0.00000000       5.34444444       0.00000000       0.00000000      -0.07572377
2
Properties=species:S:1:pos:R:3:forces:R:3 energy=-3.126540458224806 pbc="F F F"
O        0.00000000       0.00000000       0.00000000       0.00000000       0.00000000       0.07693654
O        0.00000000       0.00000000       5.40404040       0.00000000       0.00000000      -0.07693654
2
Properties=species:S:1:pos:R:3:forces:R:3 energy=-3.1220077138759543 pbc="F F F"
O        0.00000000       0.00000000       0.00000000       0.00000000       0.00000000       0.07466154
O        0.00000000       0.00000000       5.46363636       0.00000000       0.00000000      -0.07466154
2
Properties=species:S:1:pos:R:3:forces:R:3 energy=-3.1176723023277475 pbc="F F F"
O        0.00000000       0.00000000       0.00000000       0.00000000       0.00000000       0.07093275
O        0.00000000       0.00000000       5.52323232       0.00000000       0.00000000      -0.07093275
2
Properties=species:S:1:pos:R:3:forces:R:3 energy=-3.1135285988857873 pbc="F F F"
O        0.00000000       0.00000000       0.00000000       0.00000000       0.00000000       0.06843839
O        0.00000000       0.00000000       5.58282828       0.00000000       0.00000000      -0.06843839
2
Properties=species:S:1:pos:R:3:forces:R:3 energy=-3.1094858740400877 pbc="F F F"
O        0.00000000       0.00000000       0.00000000       0.00000000       0.00000000       0.06726600
O        0.00000000       0.00000000       5.64242424       0.00000000       0.00000000      -0.06726600
2
Properties=species:S:1:pos:R:3:forces:R:3 energy=-3.105558790355257 pbc="F F F"
O        0.00000000       0.00000000       0.00000000       0.00000000       0.00000000       0.06353684
O        0.00000000       0.00000000       5.70202020       0.00000000       0.00000000      -0.06353684
2
Properties=species:S:1:pos:R:3:forces:R:3 energy=-3.102054797840259 pbc="F F F"
O        0.00000000       0.00000000       0.00000000       0.00000000       0.00000000       0.05293535
O        0.00000000       0.00000000       5.76161616       0.00000000       0.00000000      -0.05293535
2
Properties=species:S:1:pos:R:3:forces:R:3 energy=-3.099377438051439 pbc="F F F"
O        0.00000000       0.00000000       0.00000000       0.00000000       0.00000000       0.03613851
O        0.00000000       0.00000000       5.82121212       0.00000000       0.00000000      -0.03613851
2
Properties=species:S:1:pos:R:3:forces:R:3 energy=-3.0977714740374958 pbc="F F F"
O        0.00000000       0.00000000       0.00000000       0.00000000       0.00000000       0.01829031
O        0.00000000       0.00000000       5.88080808       0.00000000       0.00000000      -0.01829031
2
Properties=species:S:1:pos:R:3:forces:R:3 energy=-3.0971006832833132 pbc="F F F"
O        0.00000000       0.00000000       0.00000000       0.00000000       0.00000000       0.00511268
O        0.00000000       0.00000000       5.94040404       0.00000000       0.00000000      -0.00511268
2
Properties=species:S:1:pos:R:3:forces:R:3 energy=-3.096991862185256 pbc="F F F"
O        0.00000000       0.00000000       0.00000000       0.00000000       0.00000000       0.00021801
O        0.00000000       0.00000000       6.00000000       0.00000000       0.00000000      -0.00021801
