2
Properties=species:S:1:pos:R:3:forces:R:3 energy=6006.9921594945 pbc="F F F"
P        0.00000000       0.00000000       0.00000000       0.00000000       0.00000000 -125788.34375000
P        0.00000000       0.00000000       0.10000000       0.00000000       0.00000000  125788.34375000
2
Properties=species:S:1:pos:R:3:forces:R:3 energy=2066.5314661351254 pbc="F F F"
P        0.00000000       0.00000000       0.00000000       0.00000000       0.00000000  -32082.31054688
P        0.00000000       0.00000000       0.15959596       0.00000000       0.00000000   32082.31054688
2
Properties=species:S:1:pos:R:3:forces:R:3 energy=902.7954431859065 pbc="F F F"
P        0.00000000       0.00000000       0.00000000       0.00000000       0.00000000  -11279.75878906
P        0.00000000       0.00000000       0.21919192       0.00000000       0.00000000   11279.75878906
2
Properties=species:S:1:pos:R:3:forces:R:3 energy=457.509920724969 pbc="F F F"
P        0.00000000       0.00000000       0.00000000       0.00000000       0.00000000   -4767.64355469
P        0.00000000       0.00000000       0.27878788       0.00000000       0.00000000    4767.64355469
2
Properties=species:S:1:pos:R:3:forces:R:3 energy=258.55871834189435 pbc="F F F"
P        0.00000000       0.00000000       0.00000000       0.00000000       0.00000000   -2267.86083984
P        0.00000000       0.00000000       0.33838384       0.00000000       0.00000000    2267.86083984
2
Properties=species:S:1:pos:R:3:forces:R:3 energy=160.46438852374908 pbc="F F F"
P        0.00000000       0.00000000       0.00000000       0.00000000       0.00000000   -1161.91955566
P        0.00000000       0.00000000       0.39797980       0.00000000       0.00000000    1161.91955566
2
Properties=species:S:1:pos:R:3:forces:R:3 energy=109.14416760499387 pbc="F F F"
P        0.00000000       0.00000000       0.00000000       0.00000000       0.00000000    -620.63873291
P        0.00000000       0.00000000       0.45757576       0.00000000       0.00000000     620.63873291
2
Properties=species:S:1:pos:R:3:forces:R:3 energy=81.47342944496765 pbc="F F F"
P        0.00000000       0.00000000       0.00000000       0.00000000       0.00000000    -336.90954590
P        0.00000000       0.00000000       0.51717172       0.00000000       0.00000000     336.90954590
2
Properties=species:S:1:pos:R:3:forces:R:3 energy=66.52200590131842 pbc="F F F"
P        0.00000000       0.00000000       0.00000000       0.00000000       0.00000000    -179.56524658
P        0.00000000       0.00000000       0.57676768       0.00000000       0.00000000     179.56524658
2
Properties=species:S:1:pos:R:3:forces:R:3 energy=58.72156433043746 pbc="F F F"
P        0.00000000       0.00000000       0.00000000       0.00000000       0.00000000     -91.32973480
P        0.00000000       0.00000000       0.63636364       0.00000000       0.00000000      91.32973480
2
Properties=species:S:1:pos:R:3:forces:R:3 energy=54.68696149030932 pbc="F F F"
P        0.00000000       0.00000000       0.00000000       0.00000000       0.00000000     -51.05550003
P        0.00000000       0.00000000       0.69595960       0.00000000       0.00000000      51.05550003
2
Properties=species:S:1:pos:R:3:forces:R:3 energy=51.95310190209617 pbc="F F F"
P        0.00000000       0.00000000       0.00000000       0.00000000       0.00000000     -44.96318054
P        0.00000000       0.00000000       0.75555556       0.00000000       0.00000000      44.96318054
2
Properties=species:S:1:pos:R:3:forces:R:3 energy=48.984226660154306 pbc="F F F"
P        0.00000000       0.00000000       0.00000000       0.00000000       0.00000000     -56.34963608
P        0.00000000       0.00000000       0.81515152       0.00000000       0.00000000      56.34963608
2
Properties=species:S:1:pos:R:3:forces:R:3 energy=45.15151350118 pbc="F F F"
P        0.00000000       0.00000000       0.00000000       0.00000000       0.00000000     -72.15864563
P        0.00000000       0.00000000       0.87474747       0.00000000       0.00000000      72.15864563
2
Properties=species:S:1:pos:R:3:forces:R:3 energy=40.45989111541076 pbc="F F F"
P        0.00000000       0.00000000       0.00000000       0.00000000       0.00000000     -84.44303131
P        0.00000000       0.00000000       0.93434343       0.00000000       0.00000000      84.44303131
2
Properties=species:S:1:pos:R:3:forces:R:3 energy=35.170475660559326 pbc="F F F"
P        0.00000000       0.00000000       0.00000000       0.00000000       0.00000000     -92.38188171
P        0.00000000       0.00000000       0.99393939       0.00000000       0.00000000      92.38188171
2
Properties=species:S:1:pos:R:3:forces:R:3 energy=29.564978848043367 pbc="F F F"
P        0.00000000       0.00000000       0.00000000       0.00000000       0.00000000     -94.64430237
P        0.00000000       0.00000000       1.05353535       0.00000000       0.00000000      94.64430237
2
Properties=species:S:1:pos:R:3:forces:R:3 energy=23.93906469204691 pbc="F F F"
P        0.00000000       0.00000000       0.00000000       0.00000000       0.00000000     -94.64964294
P        0.00000000       0.00000000       1.11313131       0.00000000       0.00000000      94.64964294
2
Properties=species:S:1:pos:R:3:forces:R:3 energy=18.225329617814715 pbc="F F F"
P        0.00000000       0.00000000       0.00000000       0.00000000       0.00000000     -96.68098450
P        0.00000000       0.00000000       1.17272727       0.00000000       0.00000000      96.68098450
2
Properties=species:S:1:pos:R:3:forces:R:3 energy=12.60470877844278 pbc="F F F"
P        0.00000000       0.00000000       0.00000000       0.00000000       0.00000000     -89.87491608
P        0.00000000       0.00000000       1.23232323       0.00000000       0.00000000      89.87491608
2
Properties=species:S:1:pos:R:3:forces:R:3 energy=7.674423366213118 pbc="F F F"
P        0.00000000       0.00000000       0.00000000       0.00000000       0.00000000     -75.22322083
P        0.00000000       0.00000000       1.29191919       0.00000000       0.00000000      75.22322083
2
Properties=species:S:1:pos:R:3:forces:R:3 energy=3.607528911056187 pbc="F F F"
P        0.00000000       0.00000000       0.00000000       0.00000000       0.00000000     -61.74813843
P        0.00000000       0.00000000       1.35151515       0.00000000       0.00000000      61.74813843
2
Properties=species:S:1:pos:R:3:forces:R:3 energy=0.2687290000268051 pbc="F F F"
P        0.00000000       0.00000000       0.00000000       0.00000000       0.00000000     -50.52985001
P        0.00000000       0.00000000       1.41111111       0.00000000       0.00000000      50.52985001
2
Properties=species:S:1:pos:R:3:forces:R:3 energy=-2.4302985406705035 pbc="F F F"
P        0.00000000       0.00000000       0.00000000       0.00000000       0.00000000     -40.13545227
P        0.00000000       0.00000000       1.47070707       0.00000000       0.00000000      40.13545227
2
Properties=species:S:1:pos:R:3:forces:R:3 energy=-4.530183509914323 pbc="F F F"
P        0.00000000       0.00000000       0.00000000       0.00000000       0.00000000     -30.52295303
P        0.00000000       0.00000000       1.53030303       0.00000000       0.00000000      30.52295303
2
Properties=species:S:1:pos:R:3:forces:R:3 energy=-6.096818456861466 pbc="F F F"
P        0.00000000       0.00000000       0.00000000       0.00000000       0.00000000     -22.31962013
P        0.00000000       0.00000000       1.58989899       0.00000000       0.00000000      22.31962013
2
Properties=species:S:1:pos:R:3:forces:R:3 energy=-7.222395811269523 pbc="F F F"
P        0.00000000       0.00000000       0.00000000       0.00000000       0.00000000     -15.70934010
P        0.00000000       0.00000000       1.64949495       0.00000000       0.00000000      15.70934010
2
Properties=species:S:1:pos:R:3:forces:R:3 energy=-7.997164786938283 pbc="F F F"
P        0.00000000       0.00000000       0.00000000       0.00000000       0.00000000     -10.50234222
P        0.00000000       0.00000000       1.70909091       0.00000000       0.00000000      10.50234222
2
Properties=species:S:1:pos:R:3:forces:R:3 energy=-8.496362232045511 pbc="F F F"
P        0.00000000       0.00000000       0.00000000       0.00000000       0.00000000      -6.41086149
P        0.00000000       0.00000000       1.76868687       0.00000000       0.00000000       6.41086149
2
Properties=species:S:1:pos:R:3:forces:R:3 energy=-8.777603872061364 pbc="F F F"
P        0.00000000       0.00000000       0.00000000       0.00000000       0.00000000      -3.14445901
P        0.00000000       0.00000000       1.82828283       0.00000000       0.00000000       3.14445901
2
Properties=species:S:1:pos:R:3:forces:R:3 energy=-8.883670873241009 pbc="F F F"
P        0.00000000       0.00000000       0.00000000       0.00000000       0.00000000      -0.51346290
P        0.00000000       0.00000000       1.88787879       0.00000000       0.00000000       0.51346290
2
Properties=species:S:1:pos:R:3:forces:R:3 energy=-8.850360123633905 pbc="F F F"
P        0.00000000       0.00000000       0.00000000       0.00000000       0.00000000       1.53495657
P        0.00000000       0.00000000       1.94747475       0.00000000       0.00000000      -1.53495657
2
Properties=species:S:1:pos:R:3:forces:R:3 energy=-8.71197393890895 pbc="F F F"
P        0.00000000       0.00000000       0.00000000       0.00000000       0.00000000       3.01834726
P        0.00000000       0.00000000       2.00707071       0.00000000       0.00000000      -3.01834726
2
Properties=species:S:1:pos:R:3:forces:R:3 energy=-8.500715474019565 pbc="F F F"
P        0.00000000       0.00000000       0.00000000       0.00000000       0.00000000       3.99364114
P        0.00000000       0.00000000       2.06666667       0.00000000       0.00000000      -3.99364114
2
Properties=species:S:1:pos:R:3:forces:R:3 energy=-8.244242659455898 pbc="F F F"
P        0.00000000       0.00000000       0.00000000       0.00000000       0.00000000       4.55272150
P        0.00000000       0.00000000       2.12626263       0.00000000       0.00000000      -4.55272150
2
Properties=species:S:1:pos:R:3:forces:R:3 energy=-7.964138333411073 pbc="F F F"
P        0.00000000       0.00000000       0.00000000       0.00000000       0.00000000       4.80644894
P        0.00000000       0.00000000       2.18585859       0.00000000       0.00000000      -4.80644894
2
Properties=species:S:1:pos:R:3:forces:R:3 energy=-7.675077890011424 pbc="F F F"
P        0.00000000       0.00000000       0.00000000       0.00000000       0.00000000       4.87218952
P        0.00000000       0.00000000       2.24545455       0.00000000       0.00000000      -4.87218952
2
Properties=species:S:1:pos:R:3:forces:R:3 energy=-7.385071534767605 pbc="F F F"
P        0.00000000       0.00000000       0.00000000       0.00000000       0.00000000       4.85305929
P        0.00000000       0.00000000       2.30505051       0.00000000       0.00000000      -4.85305929
2
Properties=species:S:1:pos:R:3:forces:R:3 energy=-7.096985290571134 pbc="F F F"
P        0.00000000       0.00000000       0.00000000       0.00000000       0.00000000       4.81451368
P        0.00000000       0.00000000       2.36464646       0.00000000       0.00000000      -4.81451368
2
Properties=species:S:1:pos:R:3:forces:R:3 energy=-6.811249367732705 pbc="F F F"
P        0.00000000       0.00000000       0.00000000       0.00000000       0.00000000       4.77311182
P        0.00000000       0.00000000       2.42424242       0.00000000       0.00000000      -4.77311182
2
Properties=species:S:1:pos:R:3:forces:R:3 energy=-6.528538955156894 pbc="F F F"
P        0.00000000       0.00000000       0.00000000       0.00000000       0.00000000       4.70771837
P        0.00000000       0.00000000       2.48383838       0.00000000       0.00000000      -4.70771837
2
Properties=species:S:1:pos:R:3:forces:R:3 energy=-6.251263024663478 pbc="F F F"
P        0.00000000       0.00000000       0.00000000       0.00000000       0.00000000       4.58566999
P        0.00000000       0.00000000       2.54343434       0.00000000       0.00000000      -4.58566999
2
Properties=species:S:1:pos:R:3:forces:R:3 energy=-5.983510145621763 pbc="F F F"
P        0.00000000       0.00000000       0.00000000       0.00000000       0.00000000       4.38662910
P        0.00000000       0.00000000       2.60303030       0.00000000       0.00000000      -4.38662910
2
Properties=species:S:1:pos:R:3:forces:R:3 energy=-5.729919202695722 pbc="F F F"
P        0.00000000       0.00000000       0.00000000       0.00000000       0.00000000       4.11216927
P        0.00000000       0.00000000       2.66262626       0.00000000       0.00000000      -4.11216927
2
Properties=species:S:1:pos:R:3:forces:R:3 energy=-5.494501103740105 pbc="F F F"
P        0.00000000       0.00000000       0.00000000       0.00000000       0.00000000       3.78109455
P        0.00000000       0.00000000       2.72222222       0.00000000       0.00000000      -3.78109455
2
Properties=species:S:1:pos:R:3:forces:R:3 energy=-5.279867746307367 pbc="F F F"
P        0.00000000       0.00000000       0.00000000       0.00000000       0.00000000       3.41870332
P        0.00000000       0.00000000       2.78181818       0.00000000       0.00000000      -3.41870332
2
Properties=species:S:1:pos:R:3:forces:R:3 energy=-5.087171313383574 pbc="F F F"
P        0.00000000       0.00000000       0.00000000       0.00000000       0.00000000       3.04841685
P        0.00000000       0.00000000       2.84141414       0.00000000       0.00000000      -3.04841685
2
Properties=species:S:1:pos:R:3:forces:R:3 energy=-4.916307835940852 pbc="F F F"
P        0.00000000       0.00000000       0.00000000       0.00000000       0.00000000       2.68865204
P        0.00000000       0.00000000       2.90101010       0.00000000       0.00000000      -2.68865204
2
Properties=species:S:1:pos:R:3:forces:R:3 energy=-4.76623426506811 pbc="F F F"
P        0.00000000       0.00000000       0.00000000       0.00000000       0.00000000       2.35247350
P        0.00000000       0.00000000       2.96060606       0.00000000       0.00000000      -2.35247350
2
Properties=species:S:1:pos:R:3:forces:R:3 energy=-4.6352888386146 pbc="F F F"
P        0.00000000       0.00000000       0.00000000       0.00000000       0.00000000       2.04755831
P        0.00000000       0.00000000       3.02020202       0.00000000       0.00000000      -2.04755831
2
Properties=species:S:1:pos:R:3:forces:R:3 energy=-4.521489976087578 pbc="F F F"
P        0.00000000       0.00000000       0.00000000       0.00000000       0.00000000       1.77734137
P        0.00000000       0.00000000       3.07979798       0.00000000       0.00000000      -1.77734137
2
Properties=species:S:1:pos:R:3:forces:R:3 energy=-4.422740135594022 pbc="F F F"
P        0.00000000       0.00000000       0.00000000       0.00000000       0.00000000       1.54244864
P        0.00000000       0.00000000       3.13939394       0.00000000       0.00000000      -1.54244864
2
Properties=species:S:1:pos:R:3:forces:R:3 energy=-4.336978270085223 pbc="F F F"
P        0.00000000       0.00000000       0.00000000       0.00000000       0.00000000       1.34094620
P        0.00000000       0.00000000       3.19898990       0.00000000       0.00000000      -1.34094620
2
Properties=species:S:1:pos:R:3:forces:R:3 energy=-4.262327419301345 pbc="F F F"
P        0.00000000       0.00000000       0.00000000       0.00000000       0.00000000       1.16871226
P        0.00000000       0.00000000       3.25858586       0.00000000       0.00000000      -1.16871226
2
Properties=species:S:1:pos:R:3:forces:R:3 energy=-4.197199646263859 pbc="F F F"
P        0.00000000       0.00000000       0.00000000       0.00000000       0.00000000       1.02049732
P        0.00000000       0.00000000       3.31818182       0.00000000       0.00000000      -1.02049732
2
Properties=species:S:1:pos:R:3:forces:R:3 energy=-4.140318083842878 pbc="F F F"
P        0.00000000       0.00000000       0.00000000       0.00000000       0.00000000       0.89120489
P        0.00000000       0.00000000       3.37777778       0.00000000       0.00000000      -0.89120489
2
Properties=species:S:1:pos:R:3:forces:R:3 energy=-4.090682345408627 pbc="F F F"
P        0.00000000       0.00000000       0.00000000       0.00000000       0.00000000       0.77673000
P        0.00000000       0.00000000       3.43737374       0.00000000       0.00000000      -0.77673000
2
Properties=species:S:1:pos:R:3:forces:R:3 energy=-4.047500064365412 pbc="F F F"
P        0.00000000       0.00000000       0.00000000       0.00000000       0.00000000       0.67423618
P        0.00000000       0.00000000       3.49696970       0.00000000       0.00000000      -0.67423618
2
Properties=species:S:1:pos:R:3:forces:R:3 energy=-4.0101156163400855 pbc="F F F"
P        0.00000000       0.00000000       0.00000000       0.00000000       0.00000000       0.58197653
P        0.00000000       0.00000000       3.55656566       0.00000000       0.00000000      -0.58197653
2
Properties=species:S:1:pos:R:3:forces:R:3 energy=-3.9779504558526364 pbc="F F F"
P        0.00000000       0.00000000       0.00000000       0.00000000       0.00000000       0.49894449
P        0.00000000       0.00000000       3.61616162       0.00000000       0.00000000      -0.49894449
2
Properties=species:S:1:pos:R:3:forces:R:3 energy=-3.9504739935715807 pbc="F F F"
P        0.00000000       0.00000000       0.00000000       0.00000000       0.00000000       0.42455596
P        0.00000000       0.00000000       3.67575758       0.00000000       0.00000000      -0.42455596
2
Properties=species:S:1:pos:R:3:forces:R:3 energy=-3.9271824150742836 pbc="F F F"
P        0.00000000       0.00000000       0.00000000       0.00000000       0.00000000       0.35844481
P        0.00000000       0.00000000       3.73535354       0.00000000       0.00000000      -0.35844481
2
Properties=species:S:1:pos:R:3:forces:R:3 energy=-3.907590978592521 pbc="F F F"
P        0.00000000       0.00000000       0.00000000       0.00000000       0.00000000       0.30034313
P        0.00000000       0.00000000       3.79494949       0.00000000       0.00000000      -0.30034313
2
Properties=species:S:1:pos:R:3:forces:R:3 energy=-3.8912293868569896 pbc="F F F"
P        0.00000000       0.00000000       0.00000000       0.00000000       0.00000000       0.25002074
P        0.00000000       0.00000000       3.85454545       0.00000000       0.00000000      -0.25002074
2
Properties=species:S:1:pos:R:3:forces:R:3 energy=-3.8776407288848587 pbc="F F F"
P        0.00000000       0.00000000       0.00000000       0.00000000       0.00000000       0.20724367
P        0.00000000       0.00000000       3.91414141       0.00000000       0.00000000      -0.20724367
2
Properties=species:S:1:pos:R:3:forces:R:3 energy=-3.8663831592452094 pbc="F F F"
P        0.00000000       0.00000000       0.00000000       0.00000000       0.00000000       0.17173277
P        0.00000000       0.00000000       3.97373737       0.00000000       0.00000000      -0.17173277
2
Properties=species:S:1:pos:R:3:forces:R:3 energy=-3.8570343646555942 pbc="F F F"
P        0.00000000       0.00000000       0.00000000       0.00000000       0.00000000       0.14312014
P        0.00000000       0.00000000       4.03333333       0.00000000       0.00000000      -0.14312014
2
Properties=species:S:1:pos:R:3:forces:R:3 energy=-3.849197111797718 pbc="F F F"
P        0.00000000       0.00000000       0.00000000       0.00000000       0.00000000       0.12090991
P        0.00000000       0.00000000       4.09292929       0.00000000       0.00000000      -0.12090991
2
Properties=species:S:1:pos:R:3:forces:R:3 energy=-3.8425084331843355 pbc="F F F"
P        0.00000000       0.00000000       0.00000000       0.00000000       0.00000000       0.10445855
P        0.00000000       0.00000000       4.15252525       0.00000000       0.00000000      -0.10445855
2
Properties=species:S:1:pos:R:3:forces:R:3 energy=-3.836647905285255 pbc="F F F"
P        0.00000000       0.00000000       0.00000000       0.00000000       0.00000000       0.09297162
P        0.00000000       0.00000000       4.21212121       0.00000000       0.00000000      -0.09297162
2
Properties=species:S:1:pos:R:3:forces:R:3 energy=-3.8313466213182363 pbc="F F F"
P        0.00000000       0.00000000       0.00000000       0.00000000       0.00000000       0.08552527
P        0.00000000       0.00000000       4.27171717       0.00000000       0.00000000      -0.08552527
2
Properties=species:S:1:pos:R:3:forces:R:3 energy=-3.826393622214981 pbc="F F F"
P        0.00000000       0.00000000       0.00000000       0.00000000       0.00000000       0.08111460
P        0.00000000       0.00000000       4.33131313       0.00000000       0.00000000      -0.08111460
2
Properties=species:S:1:pos:R:3:forces:R:3 energy=-3.821638511305947 pbc="F F F"
P        0.00000000       0.00000000       0.00000000       0.00000000       0.00000000       0.07872008
P        0.00000000       0.00000000       4.39090909       0.00000000       0.00000000      -0.07872008
2
Properties=species:S:1:pos:R:3:forces:R:3 energy=-3.816989559643006 pbc="F F F"
P        0.00000000       0.00000000       0.00000000       0.00000000       0.00000000       0.07738917
P        0.00000000       0.00000000       4.45050505       0.00000000       0.00000000      -0.07738917
2
Properties=species:S:1:pos:R:3:forces:R:3 energy=-3.812409714656129 pbc="F F F"
P        0.00000000       0.00000000       0.00000000       0.00000000       0.00000000       0.07630159
P        0.00000000       0.00000000       4.51010101       0.00000000       0.00000000      -0.07630159
2
Properties=species:S:1:pos:R:3:forces:R:3 energy=-3.807903474460247 pbc="F F F"
P        0.00000000       0.00000000       0.00000000       0.00000000       0.00000000       0.07481038
P        0.00000000       0.00000000       4.56969697       0.00000000       0.00000000      -0.07481038
2
Properties=species:S:1:pos:R:3:forces:R:3 energy=-3.803509887353343 pbc="F F F"
P        0.00000000       0.00000000       0.00000000       0.00000000       0.00000000       0.07246012
P        0.00000000       0.00000000       4.62929293       0.00000000       0.00000000      -0.07246012
2
Properties=species:S:1:pos:R:3:forces:R:3 energy=-3.7992896756292667 pbc="F F F"
P        0.00000000       0.00000000       0.00000000       0.00000000       0.00000000       0.06896546
P        0.00000000       0.00000000       4.68888889       0.00000000       0.00000000      -0.06896546
2
Properties=species:S:1:pos:R:3:forces:R:3 energy=-3.7953150897008774 pbc="F F F"
P        0.00000000       0.00000000       0.00000000       0.00000000       0.00000000       0.06420679
P        0.00000000       0.00000000       4.74848485       0.00000000       0.00000000      -0.06420679
2
Properties=species:S:1:pos:R:3:forces:R:3 energy=-3.791661111163238 pbc="F F F"
P        0.00000000       0.00000000       0.00000000       0.00000000       0.00000000       0.05822952
P        0.00000000       0.00000000       4.80808081       0.00000000       0.00000000      -0.05822952
2
Properties=species:S:1:pos:R:3:forces:R:3 energy=-3.7883936514499466 pbc="F F F"
P        0.00000000       0.00000000       0.00000000       0.00000000       0.00000000       0.05129412
P        0.00000000       0.00000000       4.86767677       0.00000000       0.00000000      -0.05129412
2
Properties=species:S:1:pos:R:3:forces:R:3 energy=-3.7855557504820343 pbc="F F F"
P        0.00000000       0.00000000       0.00000000       0.00000000       0.00000000       0.04393459
P        0.00000000       0.00000000       4.92727273       0.00000000       0.00000000      -0.04393459
2
Properties=species:S:1:pos:R:3:forces:R:3 energy=-3.783149501997423 pbc="F F F"
P        0.00000000       0.00000000       0.00000000       0.00000000       0.00000000       0.03696641
P        0.00000000       0.00000000       4.98686869       0.00000000       0.00000000      -0.03696641
2
Properties=species:S:1:pos:R:3:forces:R:3 energy=-3.78112325735125 pbc="F F F"
P        0.00000000       0.00000000       0.00000000       0.00000000       0.00000000       0.03133056
P        0.00000000       0.00000000       5.04646465       0.00000000       0.00000000      -0.03133056
2
Properties=species:S:1:pos:R:3:forces:R:3 energy=-3.77937591546638 pbc="F F F"
P        0.00000000       0.00000000       0.00000000       0.00000000       0.00000000       0.02763586
P        0.00000000       0.00000000       5.10606061       0.00000000       0.00000000      -0.02763586
2
Properties=species:S:1:pos:R:3:forces:R:3 energy=-3.777798005272832 pbc="F F F"
P        0.00000000       0.00000000       0.00000000       0.00000000       0.00000000       0.02544587
P        0.00000000       0.00000000       5.16565657       0.00000000       0.00000000      -0.02544587
2
Properties=species:S:1:pos:R:3:forces:R:3 energy=-3.776347988364604 pbc="F F F"
P        0.00000000       0.00000000       0.00000000       0.00000000       0.00000000       0.02299405
P        0.00000000       0.00000000       5.22525253       0.00000000       0.00000000      -0.02299405
2
Properties=species:S:1:pos:R:3:forces:R:3 energy=-3.775099961722423 pbc="F F F"
P        0.00000000       0.00000000       0.00000000       0.00000000       0.00000000       0.01849122
P        0.00000000       0.00000000       5.28484848       0.00000000       0.00000000      -0.01849122
2
Properties=species:S:1:pos:R:3:forces:R:3 energy=-3.774176458124508 pbc="F F F"
P        0.00000000       0.00000000       0.00000000       0.00000000       0.00000000       0.01242934
P        0.00000000       0.00000000       5.34444444       0.00000000       0.00000000      -0.01242934
2
Properties=species:S:1:pos:R:3:forces:R:3 energy=-3.773602769622891 pbc="F F F"
P        0.00000000       0.00000000       0.00000000       0.00000000       0.00000000       0.00708844
P        0.00000000       0.00000000       5.40404040       0.00000000       0.00000000      -0.00708844
2
Properties=species:S:1:pos:R:3:forces:R:3 energy=-3.773302683331462 pbc="F F F"
P        0.00000000       0.00000000       0.00000000       0.00000000       0.00000000       0.00309615
P        0.00000000       0.00000000       5.46363636       0.00000000       0.00000000      -0.00309615
2
Properties=species:S:1:pos:R:3:forces:R:3 energy=-3.7732458209400295 pbc="F F F"
P        0.00000000       0.00000000       0.00000000       0.00000000       0.00000000      -0.00152628
P        0.00000000       0.00000000       5.52323232       0.00000000       0.00000000       0.00152628
2
Properties=species:S:1:pos:R:3:forces:R:3 energy=-3.773544210910147 pbc="F F F"
P        0.00000000       0.00000000       0.00000000       0.00000000       0.00000000      -0.00904511
P        0.00000000       0.00000000       5.58282828       0.00000000       0.00000000       0.00904511
2
Properties=species:S:1:pos:R:3:forces:R:3 energy=-3.7743707402135707 pbc="F F F"
P        0.00000000       0.00000000       0.00000000       0.00000000       0.00000000      -0.01874192
P        0.00000000       0.00000000       5.64242424       0.00000000       0.00000000       0.01874192
2
Properties=species:S:1:pos:R:3:forces:R:3 energy=-3.7757250462945144 pbc="F F F"
P        0.00000000       0.00000000       0.00000000       0.00000000       0.00000000      -0.02570496
P        0.00000000       0.00000000       5.70202020       0.00000000       0.00000000       0.02570496
2
Properties=species:S:1:pos:R:3:forces:R:3 energy=-3.7772785350937896 pbc="F F F"
P        0.00000000       0.00000000       0.00000000       0.00000000       0.00000000      -0.02510747
P        0.00000000       0.00000000       5.76161616       0.00000000       0.00000000       0.02510747
2
Properties=species:S:1:pos:R:3:forces:R:3 energy=-3.778573937003536 pbc="F F F"
P        0.00000000       0.00000000       0.00000000       0.00000000       0.00000000      -0.01747373
P        0.00000000       0.00000000       5.82121212       0.00000000       0.00000000       0.01747373
2
Properties=species:S:1:pos:R:3:forces:R:3 energy=-3.77931069311445 pbc="F F F"
P        0.00000000       0.00000000       0.00000000       0.00000000       0.00000000      -0.00741498
P        0.00000000       0.00000000       5.88080808       0.00000000       0.00000000       0.00741498
2
Properties=species:S:1:pos:R:3:forces:R:3 energy=-3.779506126571236 pbc="F F F"
P        0.00000000       0.00000000       0.00000000       0.00000000       0.00000000       0.00033742
P        0.00000000       0.00000000       5.94040404       0.00000000       0.00000000      -0.00033742
2
Properties=species:S:1:pos:R:3:forces:R:3 energy=-3.779374323162577 pbc="F F F"
P        0.00000000       0.00000000       0.00000000       0.00000000       0.00000000       0.00307396
P        0.00000000       0.00000000       6.00000000       0.00000000       0.00000000      -0.00307396
