2
Properties=species:S:1:pos:R:3:forces:R:3 energy=57681.28353141289 pbc="F F F"
Pm       0.00000000       0.00000000       0.00000000       0.00000000       0.00000000 -1423415.25000000
Pm       0.00000000       0.00000000       0.10000000       0.00000000       0.00000000 1423415.25000000
2
Properties=species:S:1:pos:R:3:forces:R:3 energy=16356.28646110039 pbc="F F F"
Pm       0.00000000       0.00000000       0.00000000       0.00000000       0.00000000 -301127.37500000
Pm       0.00000000       0.00000000       0.15959596       0.00000000       0.00000000  301127.37500000
2
Properties=species:S:1:pos:R:3:forces:R:3 energy=6059.61946891289 pbc="F F F"
Pm       0.00000000       0.00000000       0.00000000       0.00000000       0.00000000  -92240.82812500
Pm       0.00000000       0.00000000       0.21919192       0.00000000       0.00000000   92240.82812500
2
Properties=species:S:1:pos:R:3:forces:R:3 energy=2600.9693224285147 pbc="F F F"
Pm       0.00000000       0.00000000       0.00000000       0.00000000       0.00000000  -34566.28515625
Pm       0.00000000       0.00000000       0.27878788       0.00000000       0.00000000   34566.28515625
2
Properties=species:S:1:pos:R:3:forces:R:3 energy=1230.990318522265 pbc="F F F"
Pm       0.00000000       0.00000000       0.00000000       0.00000000       0.00000000  -14603.35253906
Pm       0.00000000       0.00000000       0.33838384       0.00000000       0.00000000   14603.35253906
2
Properties=species:S:1:pos:R:3:forces:R:3 energy=630.4357530925774 pbc="F F F"
Pm       0.00000000       0.00000000       0.00000000       0.00000000       0.00000000   -6685.95458984
Pm       0.00000000       0.00000000       0.39797980       0.00000000       0.00000000    6685.95458984
2
Properties=species:S:1:pos:R:3:forces:R:3 energy=347.67433953102994 pbc="F F F"
Pm       0.00000000       0.00000000       0.00000000       0.00000000       0.00000000   -3255.07104492
Pm       0.00000000       0.00000000       0.45757576       0.00000000       0.00000000    3255.07104492
2
Properties=species:S:1:pos:R:3:forces:R:3 energy=206.75420404565435 pbc="F F F"
Pm       0.00000000       0.00000000       0.00000000       0.00000000       0.00000000   -1668.25927734
Pm       0.00000000       0.00000000       0.51717172       0.00000000       0.00000000    1668.25927734
2
Properties=species:S:1:pos:R:3:forces:R:3 energy=133.054024017286 pbc="F F F"
Pm       0.00000000       0.00000000       0.00000000       0.00000000       0.00000000    -893.46923828
Pm       0.00000000       0.00000000       0.57676768       0.00000000       0.00000000     893.46923828
2
Properties=species:S:1:pos:R:3:forces:R:3 energy=92.90986665830319 pbc="F F F"
Pm       0.00000000       0.00000000       0.00000000       0.00000000       0.00000000    -495.97686768
Pm       0.00000000       0.00000000       0.63636364       0.00000000       0.00000000     495.97686768
2
Properties=species:S:1:pos:R:3:forces:R:3 energy=70.35408821824166 pbc="F F F"
Pm       0.00000000       0.00000000       0.00000000       0.00000000       0.00000000    -282.04769897
Pm       0.00000000       0.00000000       0.69595960       0.00000000       0.00000000     282.04769897
2
Properties=species:S:1:pos:R:3:forces:R:3 energy=57.46769383155083 pbc="F F F"
Pm       0.00000000       0.00000000       0.00000000       0.00000000       0.00000000    -161.39845276
Pm       0.00000000       0.00000000       0.75555556       0.00000000       0.00000000     161.39845276
2
Properties=species:S:1:pos:R:3:forces:R:3 energy=50.14275045379711 pbc="F F F"
Pm       0.00000000       0.00000000       0.00000000       0.00000000       0.00000000     -90.45851898
Pm       0.00000000       0.00000000       0.81515152       0.00000000       0.00000000      90.45851898
2
Properties=species:S:1:pos:R:3:forces:R:3 energy=46.13732618236859 pbc="F F F"
Pm       0.00000000       0.00000000       0.00000000       0.00000000       0.00000000     -47.44477463
Pm       0.00000000       0.00000000       0.87474747       0.00000000       0.00000000      47.44477463
2
Properties=species:S:1:pos:R:3:forces:R:3 energy=44.16475798718791 pbc="F F F"
Pm       0.00000000       0.00000000       0.00000000       0.00000000       0.00000000     -20.85256958
Pm       0.00000000       0.00000000       0.93434343       0.00000000       0.00000000      20.85256958
2
Properties=species:S:1:pos:R:3:forces:R:3 energy=43.45049071264141 pbc="F F F"
Pm       0.00000000       0.00000000       0.00000000       0.00000000       0.00000000      -4.49546337
Pm       0.00000000       0.00000000       0.99393939       0.00000000       0.00000000       4.49546337
2
Properties=species:S:1:pos:R:3:forces:R:3 energy=43.489317309632796 pbc="F F F"
Pm       0.00000000       0.00000000       0.00000000       0.00000000       0.00000000       4.78298998
Pm       0.00000000       0.00000000       1.05353535       0.00000000       0.00000000      -4.78298998
2
Properties=species:S:1:pos:R:3:forces:R:3 energy=43.910308123500926 pbc="F F F"
Pm       0.00000000       0.00000000       0.00000000       0.00000000       0.00000000       8.47288418
Pm       0.00000000       0.00000000       1.11313131       0.00000000       0.00000000      -8.47288418
2
Properties=species:S:1:pos:R:3:forces:R:3 energy=44.39717138317765 pbc="F F F"
Pm       0.00000000       0.00000000       0.00000000       0.00000000       0.00000000       7.00588274
Pm       0.00000000       0.00000000       1.17272727       0.00000000       0.00000000      -7.00588274
2
Properties=species:S:1:pos:R:3:forces:R:3 energy=44.64273628409947 pbc="F F F"
Pm       0.00000000       0.00000000       0.00000000       0.00000000       0.00000000       0.38256681
Pm       0.00000000       0.00000000       1.23232323       0.00000000       0.00000000      -0.38256681
2
Properties=species:S:1:pos:R:3:forces:R:3 energy=44.345641830981045 pbc="F F F"
Pm       0.00000000       0.00000000       0.00000000       0.00000000       0.00000000     -11.09559822
Pm       0.00000000       0.00000000       1.29191919       0.00000000       0.00000000      11.09559822
2
Properties=species:S:1:pos:R:3:forces:R:3 energy=43.24636280077783 pbc="F F F"
Pm       0.00000000       0.00000000       0.00000000       0.00000000       0.00000000     -26.26222610
Pm       0.00000000       0.00000000       1.35151515       0.00000000       0.00000000      26.26222610
2
Properties=species:S:1:pos:R:3:forces:R:3 energy=41.1805316190789 pbc="F F F"
Pm       0.00000000       0.00000000       0.00000000       0.00000000       0.00000000     -43.18644714
Pm       0.00000000       0.00000000       1.41111111       0.00000000       0.00000000      43.18644714
2
Properties=species:S:1:pos:R:3:forces:R:3 energy=38.10131538693834 pbc="F F F"
Pm       0.00000000       0.00000000       0.00000000       0.00000000       0.00000000     -60.01164627
Pm       0.00000000       0.00000000       1.47070707       0.00000000       0.00000000      60.01164627
2
Properties=species:S:1:pos:R:3:forces:R:3 energy=34.05608512904227 pbc="F F F"
Pm       0.00000000       0.00000000       0.00000000       0.00000000       0.00000000     -75.39065552
Pm       0.00000000       0.00000000       1.53030303       0.00000000       0.00000000      75.39065552
2
Properties=species:S:1:pos:R:3:forces:R:3 energy=29.18161315320789 pbc="F F F"
Pm       0.00000000       0.00000000       0.00000000       0.00000000       0.00000000     -87.34407806
Pm       0.00000000       0.00000000       1.58989899       0.00000000       0.00000000      87.34407806
2
Properties=species:S:1:pos:R:3:forces:R:3 energy=23.793878666082062 pbc="F F F"
Pm       0.00000000       0.00000000       0.00000000       0.00000000       0.00000000     -91.82962036
Pm       0.00000000       0.00000000       1.64949495       0.00000000       0.00000000      91.82962036
2
Properties=species:S:1:pos:R:3:forces:R:3 energy=18.452196585517314 pbc="F F F"
Pm       0.00000000       0.00000000       0.00000000       0.00000000       0.00000000     -85.70307159
Pm       0.00000000       0.00000000       1.70909091       0.00000000       0.00000000      85.70307159
2
Properties=species:S:1:pos:R:3:forces:R:3 energy=13.729468865365881 pbc="F F F"
Pm       0.00000000       0.00000000       0.00000000       0.00000000       0.00000000     -72.13831329
Pm       0.00000000       0.00000000       1.76868687       0.00000000       0.00000000      72.13831329
2
Properties=species:S:1:pos:R:3:forces:R:3 energy=9.862904138118873 pbc="F F F"
Pm       0.00000000       0.00000000       0.00000000       0.00000000       0.00000000     -57.96276093
Pm       0.00000000       0.00000000       1.82828283       0.00000000       0.00000000      57.96276093
2
Properties=species:S:1:pos:R:3:forces:R:3 energy=6.762641804420808 pbc="F F F"
Pm       0.00000000       0.00000000       0.00000000       0.00000000       0.00000000     -46.57335281
Pm       0.00000000       0.00000000       1.88787879       0.00000000       0.00000000      46.57335281
2
Properties=species:S:1:pos:R:3:forces:R:3 energy=4.264971097368205 pbc="F F F"
Pm       0.00000000       0.00000000       0.00000000       0.00000000       0.00000000     -37.52660370
Pm       0.00000000       0.00000000       1.94747475       0.00000000       0.00000000      37.52660370
2
Properties=species:S:1:pos:R:3:forces:R:3 energy=2.2656789335899834 pbc="F F F"
Pm       0.00000000       0.00000000       0.00000000       0.00000000       0.00000000     -29.72886467
Pm       0.00000000       0.00000000       2.00707071       0.00000000       0.00000000      29.72886467
2
Properties=species:S:1:pos:R:3:forces:R:3 energy=0.7021774656792428 pbc="F F F"
Pm       0.00000000       0.00000000       0.00000000       0.00000000       0.00000000     -22.91836548
Pm       0.00000000       0.00000000       2.06666667       0.00000000       0.00000000      22.91836548
2
Properties=species:S:1:pos:R:3:forces:R:3 energy=-0.4888287643985482 pbc="F F F"
Pm       0.00000000       0.00000000       0.00000000       0.00000000       0.00000000     -17.24914551
Pm       0.00000000       0.00000000       2.12626263       0.00000000       0.00000000      17.24914551
2
Properties=species:S:1:pos:R:3:forces:R:3 energy=-1.3765698740960715 pbc="F F F"
Pm       0.00000000       0.00000000       0.00000000       0.00000000       0.00000000     -12.72016907
Pm       0.00000000       0.00000000       2.18585859       0.00000000       0.00000000      12.72016907
2
Properties=species:S:1:pos:R:3:forces:R:3 energy=-2.0239881259136987 pbc="F F F"
Pm       0.00000000       0.00000000       0.00000000       0.00000000       0.00000000      -9.14936733
Pm       0.00000000       0.00000000       2.24545455       0.00000000       0.00000000       9.14936733
2
Properties=species:S:1:pos:R:3:forces:R:3 energy=-2.482533121688926 pbc="F F F"
Pm       0.00000000       0.00000000       0.00000000       0.00000000       0.00000000      -6.35826349
Pm       0.00000000       0.00000000       2.30505051       0.00000000       0.00000000       6.35826349
2
Properties=species:S:1:pos:R:3:forces:R:3 energy=-2.7952097628426404 pbc="F F F"
Pm       0.00000000       0.00000000       0.00000000       0.00000000       0.00000000      -4.24136686
Pm       0.00000000       0.00000000       2.36464646       0.00000000       0.00000000       4.24136686
2
Properties=species:S:1:pos:R:3:forces:R:3 energy=-3.0000763791648004 pbc="F F F"
Pm       0.00000000       0.00000000       0.00000000       0.00000000       0.00000000      -2.72831774
Pm       0.00000000       0.00000000       2.42424242       0.00000000       0.00000000       2.72831774
2
Properties=species:S:1:pos:R:3:forces:R:3 energy=-3.130744172556095 pbc="F F F"
Pm       0.00000000       0.00000000       0.00000000       0.00000000       0.00000000      -1.73452532
Pm       0.00000000       0.00000000       2.48383838       0.00000000       0.00000000       1.73452532
2
Properties=species:S:1:pos:R:3:forces:R:3 energy=-3.2148535270704643 pbc="F F F"
Pm       0.00000000       0.00000000       0.00000000       0.00000000       0.00000000      -1.14476430
Pm       0.00000000       0.00000000       2.54343434       0.00000000       0.00000000       1.14476430
2
Properties=species:S:1:pos:R:3:forces:R:3 energy=-3.2726566611474954 pbc="F F F"
Pm       0.00000000       0.00000000       0.00000000       0.00000000       0.00000000      -0.83064467
Pm       0.00000000       0.00000000       2.60303030       0.00000000       0.00000000       0.83064467
2
Properties=species:S:1:pos:R:3:forces:R:3 energy=-3.3170149289803192 pbc="F F F"
Pm       0.00000000       0.00000000       0.00000000       0.00000000       0.00000000      -0.67625892
Pm       0.00000000       0.00000000       2.66262626       0.00000000       0.00000000       0.67625892
2
Properties=species:S:1:pos:R:3:forces:R:3 energy=-3.354642173405627 pbc="F F F"
Pm       0.00000000       0.00000000       0.00000000       0.00000000       0.00000000      -0.59238237
Pm       0.00000000       0.00000000       2.72222222       0.00000000       0.00000000       0.59238237
2
Properties=species:S:1:pos:R:3:forces:R:3 energy=-3.3877864188549567 pbc="F F F"
Pm       0.00000000       0.00000000       0.00000000       0.00000000       0.00000000      -0.51762211
Pm       0.00000000       0.00000000       2.78181818       0.00000000       0.00000000       0.51762211
2
Properties=species:S:1:pos:R:3:forces:R:3 energy=-3.415745797701164 pbc="F F F"
Pm       0.00000000       0.00000000       0.00000000       0.00000000       0.00000000      -0.41362140
Pm       0.00000000       0.00000000       2.84141414       0.00000000       0.00000000       0.41362140
2
Properties=species:S:1:pos:R:3:forces:R:3 energy=-3.4361051917502565 pbc="F F F"
Pm       0.00000000       0.00000000       0.00000000       0.00000000       0.00000000      -0.26074862
Pm       0.00000000       0.00000000       2.90101010       0.00000000       0.00000000       0.26074862
2
Properties=species:S:1:pos:R:3:forces:R:3 energy=-3.445793099116879 pbc="F F F"
Pm       0.00000000       0.00000000       0.00000000       0.00000000       0.00000000      -0.05648015
Pm       0.00000000       0.00000000       2.96060606       0.00000000       0.00000000       0.05648015
2
Properties=species:S:1:pos:R:3:forces:R:3 energy=-3.442080077220762 pbc="F F F"
Pm       0.00000000       0.00000000       0.00000000       0.00000000       0.00000000       0.18543787
Pm       0.00000000       0.00000000       3.02020202       0.00000000       0.00000000      -0.18543787
2
Properties=species:S:1:pos:R:3:forces:R:3 energy=-3.423464848938514 pbc="F F F"
Pm       0.00000000       0.00000000       0.00000000       0.00000000       0.00000000       0.43850496
Pm       0.00000000       0.00000000       3.07979798       0.00000000       0.00000000      -0.43850496
2
Properties=species:S:1:pos:R:3:forces:R:3 energy=-3.390218865645479 pbc="F F F"
Pm       0.00000000       0.00000000       0.00000000       0.00000000       0.00000000       0.67136544
Pm       0.00000000       0.00000000       3.13939394       0.00000000       0.00000000      -0.67136544
2
Properties=species:S:1:pos:R:3:forces:R:3 energy=-3.344370259479107 pbc="F F F"
Pm       0.00000000       0.00000000       0.00000000       0.00000000       0.00000000       0.85807258
Pm       0.00000000       0.00000000       3.19898990       0.00000000       0.00000000      -0.85807258
2
Properties=species:S:1:pos:R:3:forces:R:3 energy=-3.2891239943473938 pbc="F F F"
Pm       0.00000000       0.00000000       0.00000000       0.00000000       0.00000000       0.98595643
Pm       0.00000000       0.00000000       3.25858586       0.00000000       0.00000000      -0.98595643
2
Properties=species:S:1:pos:R:3:forces:R:3 energy=-3.227980810244688 pbc="F F F"
Pm       0.00000000       0.00000000       0.00000000       0.00000000       0.00000000       1.05741572
Pm       0.00000000       0.00000000       3.31818182       0.00000000       0.00000000      -1.05741572
2
Properties=species:S:1:pos:R:3:forces:R:3 energy=-3.163943753549157 pbc="F F F"
Pm       0.00000000       0.00000000       0.00000000       0.00000000       0.00000000       1.08594239
Pm       0.00000000       0.00000000       3.37777778       0.00000000       0.00000000      -1.08594239
2
Properties=species:S:1:pos:R:3:forces:R:3 energy=-3.0990379639906105 pbc="F F F"
Pm       0.00000000       0.00000000       0.00000000       0.00000000       0.00000000       1.08962131
Pm       0.00000000       0.00000000       3.43737374       0.00000000       0.00000000      -1.08962131
2
Properties=species:S:1:pos:R:3:forces:R:3 energy=-3.034222736208675 pbc="F F F"
Pm       0.00000000       0.00000000       0.00000000       0.00000000       0.00000000       1.08540809
Pm       0.00000000       0.00000000       3.49696970       0.00000000       0.00000000      -1.08540809
2
Properties=species:S:1:pos:R:3:forces:R:3 energy=-2.96957313135363 pbc="F F F"
Pm       0.00000000       0.00000000       0.00000000       0.00000000       0.00000000       1.08565462
Pm       0.00000000       0.00000000       3.55656566       0.00000000       0.00000000      -1.08565462
2
Properties=species:S:1:pos:R:3:forces:R:3 energy=-2.9045967490149156 pbc="F F F"
Pm       0.00000000       0.00000000       0.00000000       0.00000000       0.00000000       1.09705043
Pm       0.00000000       0.00000000       3.61616162       0.00000000       0.00000000      -1.09705043
2
Properties=species:S:1:pos:R:3:forces:R:3 energy=-2.8385587781075627 pbc="F F F"
Pm       0.00000000       0.00000000       0.00000000       0.00000000       0.00000000       1.12119472
Pm       0.00000000       0.00000000       3.67575758       0.00000000       0.00000000      -1.12119472
2
Properties=species:S:1:pos:R:3:forces:R:3 energy=-2.77075036982915 pbc="F F F"
Pm       0.00000000       0.00000000       0.00000000       0.00000000       0.00000000       1.15580511
Pm       0.00000000       0.00000000       3.73535354       0.00000000       0.00000000      -1.15580511
2
Properties=species:S:1:pos:R:3:forces:R:3 energy=-2.7006836894000807 pbc="F F F"
Pm       0.00000000       0.00000000       0.00000000       0.00000000       0.00000000       1.19596326
Pm       0.00000000       0.00000000       3.79494949       0.00000000       0.00000000      -1.19596326
2
Properties=species:S:1:pos:R:3:forces:R:3 energy=-2.6282156909841023 pbc="F F F"
Pm       0.00000000       0.00000000       0.00000000       0.00000000       0.00000000       1.23535585
Pm       0.00000000       0.00000000       3.85454545       0.00000000       0.00000000      -1.23535585
2
Properties=species:S:1:pos:R:3:forces:R:3 energy=-2.5535789900625097 pbc="F F F"
Pm       0.00000000       0.00000000       0.00000000       0.00000000       0.00000000       1.26784682
Pm       0.00000000       0.00000000       3.91414141       0.00000000       0.00000000      -1.26784682
2
Properties=species:S:1:pos:R:3:forces:R:3 energy=-2.4773259697804226 pbc="F F F"
Pm       0.00000000       0.00000000       0.00000000       0.00000000       0.00000000       1.28901517
Pm       0.00000000       0.00000000       3.97373737       0.00000000       0.00000000      -1.28901517
2
Properties=species:S:1:pos:R:3:forces:R:3 energy=-2.400199436035837 pbc="F F F"
Pm       0.00000000       0.00000000       0.00000000       0.00000000       0.00000000       1.29711437
Pm       0.00000000       0.00000000       4.03333333       0.00000000       0.00000000      -1.29711437
2
Properties=species:S:1:pos:R:3:forces:R:3 energy=-2.3229659985707913 pbc="F F F"
Pm       0.00000000       0.00000000       0.00000000       0.00000000       0.00000000       1.29287672
Pm       0.00000000       0.00000000       4.09292929       0.00000000       0.00000000      -1.29287672
2
Properties=species:S:1:pos:R:3:forces:R:3 energy=-2.246302535378468 pbc="F F F"
Pm       0.00000000       0.00000000       0.00000000       0.00000000       0.00000000       1.27839518
Pm       0.00000000       0.00000000       4.15252525       0.00000000       0.00000000      -1.27839518
2
Properties=species:S:1:pos:R:3:forces:R:3 energy=-2.170753026269083 pbc="F F F"
Pm       0.00000000       0.00000000       0.00000000       0.00000000       0.00000000       1.25580633
Pm       0.00000000       0.00000000       4.21212121       0.00000000       0.00000000      -1.25580633
2
Properties=species:S:1:pos:R:3:forces:R:3 energy=-2.0967527270130915 pbc="F F F"
Pm       0.00000000       0.00000000       0.00000000       0.00000000       0.00000000       1.22651911
Pm       0.00000000       0.00000000       4.27171717       0.00000000       0.00000000      -1.22651911
2
Properties=species:S:1:pos:R:3:forces:R:3 energy=-2.024681037245207 pbc="F F F"
Pm       0.00000000       0.00000000       0.00000000       0.00000000       0.00000000       1.19122708
Pm       0.00000000       0.00000000       4.33131313       0.00000000       0.00000000      -1.19122708
2
Properties=species:S:1:pos:R:3:forces:R:3 energy=-1.954877619061069 pbc="F F F"
Pm       0.00000000       0.00000000       0.00000000       0.00000000       0.00000000       1.15047252
Pm       0.00000000       0.00000000       4.39090909       0.00000000       0.00000000      -1.15047252
2
Properties=species:S:1:pos:R:3:forces:R:3 energy=-1.8876407966113244 pbc="F F F"
Pm       0.00000000       0.00000000       0.00000000       0.00000000       0.00000000       1.10534215
Pm       0.00000000       0.00000000       4.45050505       0.00000000       0.00000000      -1.10534215
2
Properties=species:S:1:pos:R:3:forces:R:3 energy=-1.8231783935250818 pbc="F F F"
Pm       0.00000000       0.00000000       0.00000000       0.00000000       0.00000000       1.05781257
Pm       0.00000000       0.00000000       4.51010101       0.00000000       0.00000000      -1.05781257
2
Properties=species:S:1:pos:R:3:forces:R:3 energy=-1.7615508067223535 pbc="F F F"
Pm       0.00000000       0.00000000       0.00000000       0.00000000       0.00000000       1.01064515
Pm       0.00000000       0.00000000       4.56969697       0.00000000       0.00000000      -1.01064515
2
Properties=species:S:1:pos:R:3:forces:R:3 energy=-1.7026485213757918 pbc="F F F"
Pm       0.00000000       0.00000000       0.00000000       0.00000000       0.00000000       0.96687049
Pm       0.00000000       0.00000000       4.62929293       0.00000000       0.00000000      -0.96687049
2
Properties=species:S:1:pos:R:3:forces:R:3 energy=-1.6461899144583234 pbc="F F F"
Pm       0.00000000       0.00000000       0.00000000       0.00000000       0.00000000       0.92905277
Pm       0.00000000       0.00000000       4.68888889       0.00000000       0.00000000      -0.92905277
2
Properties=species:S:1:pos:R:3:forces:R:3 energy=-1.591766003744193 pbc="F F F"
Pm       0.00000000       0.00000000       0.00000000       0.00000000       0.00000000       0.89860165
Pm       0.00000000       0.00000000       4.74848485       0.00000000       0.00000000      -0.89860165
2
Properties=species:S:1:pos:R:3:forces:R:3 energy=-1.538942338905355 pbc="F F F"
Pm       0.00000000       0.00000000       0.00000000       0.00000000       0.00000000       0.87521321
Pm       0.00000000       0.00000000       4.80808081       0.00000000       0.00000000      -0.87521321
2
Properties=species:S:1:pos:R:3:forces:R:3 energy=-1.4873515355986473 pbc="F F F"
Pm       0.00000000       0.00000000       0.00000000       0.00000000       0.00000000       0.85658050
Pm       0.00000000       0.00000000       4.86767677       0.00000000       0.00000000      -0.85658050
2
Properties=species:S:1:pos:R:3:forces:R:3 energy=-1.4368329812495477 pbc="F F F"
Pm       0.00000000       0.00000000       0.00000000       0.00000000       0.00000000       0.83842307
Pm       0.00000000       0.00000000       4.92727273       0.00000000       0.00000000      -0.83842307
2
Properties=species:S:1:pos:R:3:forces:R:3 energy=-1.3875145314293817 pbc="F F F"
Pm       0.00000000       0.00000000       0.00000000       0.00000000       0.00000000       0.81545138
Pm       0.00000000       0.00000000       4.98686869       0.00000000       0.00000000      -0.81545138
2
Properties=species:S:1:pos:R:3:forces:R:3 energy=-1.3398119644940303 pbc="F F F"
Pm       0.00000000       0.00000000       0.00000000       0.00000000       0.00000000       0.78422230
Pm       0.00000000       0.00000000       5.04646465       0.00000000       0.00000000      -0.78422230
2
Properties=species:S:1:pos:R:3:forces:R:3 energy=-1.2941448793363997 pbc="F F F"
Pm       0.00000000       0.00000000       0.00000000       0.00000000       0.00000000       0.74842280
Pm       0.00000000       0.00000000       5.10606061       0.00000000       0.00000000      -0.74842280
2
Properties=species:S:1:pos:R:3:forces:R:3 energy=-1.2504017169410921 pbc="F F F"
Pm       0.00000000       0.00000000       0.00000000       0.00000000       0.00000000       0.72270966
Pm       0.00000000       0.00000000       5.16565657       0.00000000       0.00000000      -0.72270966
2
Properties=species:S:1:pos:R:3:forces:R:3 energy=-1.2074354659077882 pbc="F F F"
Pm       0.00000000       0.00000000       0.00000000       0.00000000       0.00000000       0.72466809
Pm       0.00000000       0.00000000       5.22525253       0.00000000       0.00000000      -0.72466809
2
Properties=species:S:1:pos:R:3:forces:R:3 energy=-1.1635138399101472 pbc="F F F"
Pm       0.00000000       0.00000000       0.00000000       0.00000000       0.00000000       0.75135392
Pm       0.00000000       0.00000000       5.28484848       0.00000000       0.00000000      -0.75135392
2
Properties=species:S:1:pos:R:3:forces:R:3 energy=-1.1180790769063795 pbc="F F F"
Pm       0.00000000       0.00000000       0.00000000       0.00000000       0.00000000       0.76795036
Pm       0.00000000       0.00000000       5.34444444       0.00000000       0.00000000      -0.76795036
2
Properties=species:S:1:pos:R:3:forces:R:3 energy=-1.07288870751585 pbc="F F F"
Pm       0.00000000       0.00000000       0.00000000       0.00000000       0.00000000       0.74050808
Pm       0.00000000       0.00000000       5.40404040       0.00000000       0.00000000      -0.74050808
2
Properties=species:S:1:pos:R:3:forces:R:3 energy=-1.0304516230068868 pbc="F F F"
Pm       0.00000000       0.00000000       0.00000000       0.00000000       0.00000000       0.68249595
Pm       0.00000000       0.00000000       5.46363636       0.00000000       0.00000000      -0.68249595
2
Properties=species:S:1:pos:R:3:forces:R:3 energy=-0.9909153280934326 pbc="F F F"
Pm       0.00000000       0.00000000       0.00000000       0.00000000       0.00000000       0.65675068
Pm       0.00000000       0.00000000       5.52323232       0.00000000       0.00000000      -0.65675068
2
Properties=species:S:1:pos:R:3:forces:R:3 energy=-0.9502443317078452 pbc="F F F"
Pm       0.00000000       0.00000000       0.00000000       0.00000000       0.00000000       0.72617543
Pm       0.00000000       0.00000000       5.58282828       0.00000000       0.00000000      -0.72617543
2
Properties=species:S:1:pos:R:3:forces:R:3 energy=-0.9026173712019241 pbc="F F F"
Pm       0.00000000       0.00000000       0.00000000       0.00000000       0.00000000       0.87953264
Pm       0.00000000       0.00000000       5.64242424       0.00000000       0.00000000      -0.87953264
2
Properties=species:S:1:pos:R:3:forces:R:3 energy=-0.845953654403416 pbc="F F F"
Pm       0.00000000       0.00000000       0.00000000       0.00000000       0.00000000       1.00280333
Pm       0.00000000       0.00000000       5.70202020       0.00000000       0.00000000      -1.00280333
2
Properties=species:S:1:pos:R:3:forces:R:3 energy=-0.7865336045801193 pbc="F F F"
Pm       0.00000000       0.00000000       0.00000000       0.00000000       0.00000000       0.95950133
Pm       0.00000000       0.00000000       5.76161616       0.00000000       0.00000000      -0.95950133
2
Properties=species:S:1:pos:R:3:forces:R:3 energy=-0.735536591599576 pbc="F F F"
Pm       0.00000000       0.00000000       0.00000000       0.00000000       0.00000000       0.72408891
Pm       0.00000000       0.00000000       5.82121212       0.00000000       0.00000000      -0.72408891
2
Properties=species:S:1:pos:R:3:forces:R:3 energy=-0.7020635589426629 pbc="F F F"
Pm       0.00000000       0.00000000       0.00000000       0.00000000       0.00000000       0.40152249
Pm       0.00000000       0.00000000       5.88080808       0.00000000       0.00000000      -0.40152249
2
Properties=species:S:1:pos:R:3:forces:R:3 energy=-0.6863440409775912 pbc="F F F"
Pm       0.00000000       0.00000000       0.00000000       0.00000000       0.00000000       0.14116287
Pm       0.00000000       0.00000000       5.94040404       0.00000000       0.00000000      -0.14116287
2
Properties=species:S:1:pos:R:3:forces:R:3 energy=-0.6818779455801096 pbc="F F F"
Pm       0.00000000       0.00000000       0.00000000       0.00000000       0.00000000       0.04226183
Pm       0.00000000       0.00000000       6.00000000       0.00000000       0.00000000      -0.04226183
