2
Properties=species:S:1:pos:R:3:forces:R:3 energy=112524.04159530363 pbc="F F F"
Pu       0.00000000       0.00000000       0.00000000       0.00000000       0.00000000 -2910066.50000000
Pu       0.00000000       0.00000000       0.10000000       0.00000000       0.00000000 2910066.50000000
2
Properties=species:S:1:pos:R:3:forces:R:3 energy=30107.53182967862 pbc="F F F"
Pu       0.00000000       0.00000000       0.00000000       0.00000000       0.00000000 -579114.68750000
Pu       0.00000000       0.00000000       0.15959596       0.00000000       0.00000000  579114.68750000
2
Properties=species:S:1:pos:R:3:forces:R:3 energy=10689.73593124112 pbc="F F F"
Pu       0.00000000       0.00000000       0.00000000       0.00000000       0.00000000 -169007.31250000
Pu       0.00000000       0.00000000       0.21919192       0.00000000       0.00000000  169007.31250000
2
Properties=species:S:1:pos:R:3:forces:R:3 energy=4482.148040616122 pbc="F F F"
Pu       0.00000000       0.00000000       0.00000000       0.00000000       0.00000000  -60242.17187500
Pu       0.00000000       0.00000000       0.27878788       0.00000000       0.00000000   60242.17187500
2
Properties=species:S:1:pos:R:3:forces:R:3 energy=2145.9988706942463 pbc="F F F"
Pu       0.00000000       0.00000000       0.00000000       0.00000000       0.00000000  -24193.39648438
Pu       0.00000000       0.00000000       0.33838384       0.00000000       0.00000000   24193.39648438
2
Properties=species:S:1:pos:R:3:forces:R:3 energy=1171.2336119051838 pbc="F F F"
Pu       0.00000000       0.00000000       0.00000000       0.00000000       0.00000000  -10580.50683594
Pu       0.00000000       0.00000000       0.39797980       0.00000000       0.00000000   10580.50683594
2
Properties=species:S:1:pos:R:3:forces:R:3 energy=731.1778868138633 pbc="F F F"
Pu       0.00000000       0.00000000       0.00000000       0.00000000       0.00000000   -4970.65917969
Pu       0.00000000       0.00000000       0.45757576       0.00000000       0.00000000    4970.65917969
2
Properties=species:S:1:pos:R:3:forces:R:3 energy=518.1907042030115 pbc="F F F"
Pu       0.00000000       0.00000000       0.00000000       0.00000000       0.00000000   -2498.32324219
Pu       0.00000000       0.00000000       0.51717172       0.00000000       0.00000000    2498.32324219
2
Properties=species:S:1:pos:R:3:forces:R:3 energy=407.8114317484096 pbc="F F F"
Pu       0.00000000       0.00000000       0.00000000       0.00000000       0.00000000   -1346.03833008
Pu       0.00000000       0.00000000       0.57676768       0.00000000       0.00000000    1346.03833008
2
Properties=species:S:1:pos:R:3:forces:R:3 energy=346.3263853806978 pbc="F F F"
Pu       0.00000000       0.00000000       0.00000000       0.00000000       0.00000000    -781.45031738
Pu       0.00000000       0.00000000       0.63636364       0.00000000       0.00000000     781.45031738
2
Properties=species:S:1:pos:R:3:forces:R:3 energy=309.3716734983135 pbc="F F F"
Pu       0.00000000       0.00000000       0.00000000       0.00000000       0.00000000    -488.69662476
Pu       0.00000000       0.00000000       0.69595960       0.00000000       0.00000000     488.69662476
2
Properties=species:S:1:pos:R:3:forces:R:3 energy=285.60562129656927 pbc="F F F"
Pu       0.00000000       0.00000000       0.00000000       0.00000000       0.00000000    -322.83502197
Pu       0.00000000       0.00000000       0.75555556       0.00000000       0.00000000     322.83502197
2
Properties=species:S:1:pos:R:3:forces:R:3 energy=269.7084656045426 pbc="F F F"
Pu       0.00000000       0.00000000       0.00000000       0.00000000       0.00000000    -218.04086304
Pu       0.00000000       0.00000000       0.81515152       0.00000000       0.00000000     218.04086304
2
Properties=species:S:1:pos:R:3:forces:R:3 energy=258.82540905261664 pbc="F F F"
Pu       0.00000000       0.00000000       0.00000000       0.00000000       0.00000000    -153.93040466
Pu       0.00000000       0.00000000       0.87474747       0.00000000       0.00000000     153.93040466
2
Properties=species:S:1:pos:R:3:forces:R:3 energy=250.47135951571923 pbc="F F F"
Pu       0.00000000       0.00000000       0.00000000       0.00000000       0.00000000    -134.54757690
Pu       0.00000000       0.00000000       0.93434343       0.00000000       0.00000000     134.54757690
2
Properties=species:S:1:pos:R:3:forces:R:3 energy=241.8211827101711 pbc="F F F"
Pu       0.00000000       0.00000000       0.00000000       0.00000000       0.00000000    -163.24887085
Pu       0.00000000       0.00000000       0.99393939       0.00000000       0.00000000     163.24887085
2
Properties=species:S:1:pos:R:3:forces:R:3 energy=230.27832101878465 pbc="F F F"
Pu       0.00000000       0.00000000       0.00000000       0.00000000       0.00000000    -228.68414307
Pu       0.00000000       0.00000000       1.05353535       0.00000000       0.00000000     228.68414307
2
Properties=species:S:1:pos:R:3:forces:R:3 energy=214.22442732427635 pbc="F F F"
Pu       0.00000000       0.00000000       0.00000000       0.00000000       0.00000000    -311.26489258
Pu       0.00000000       0.00000000       1.11313131       0.00000000       0.00000000     311.26489258
2
Properties=species:S:1:pos:R:3:forces:R:3 energy=193.215547171544 pbc="F F F"
Pu       0.00000000       0.00000000       0.00000000       0.00000000       0.00000000    -392.13467407
Pu       0.00000000       0.00000000       1.17272727       0.00000000       0.00000000     392.13467407
2
Properties=species:S:1:pos:R:3:forces:R:3 energy=167.81131192091516 pbc="F F F"
Pu       0.00000000       0.00000000       0.00000000       0.00000000       0.00000000    -456.76733398
Pu       0.00000000       0.00000000       1.23232323       0.00000000       0.00000000     456.76733398
2
Properties=species:S:1:pos:R:3:forces:R:3 energy=139.28879070853623 pbc="F F F"
Pu       0.00000000       0.00000000       0.00000000       0.00000000       0.00000000    -495.44909668
Pu       0.00000000       0.00000000       1.29191919       0.00000000       0.00000000     495.44909668
2
Properties=species:S:1:pos:R:3:forces:R:3 energy=109.41798784488199 pbc="F F F"
Pu       0.00000000       0.00000000       0.00000000       0.00000000       0.00000000    -501.05072021
Pu       0.00000000       0.00000000       1.35151515       0.00000000       0.00000000     501.05072021
2
Properties=species:S:1:pos:R:3:forces:R:3 energy=80.28159073956037 pbc="F F F"
Pu       0.00000000       0.00000000       0.00000000       0.00000000       0.00000000    -471.00460815
Pu       0.00000000       0.00000000       1.41111111       0.00000000       0.00000000     471.00460815
2
Properties=species:S:1:pos:R:3:forces:R:3 energy=53.871962432002015 pbc="F F F"
Pu       0.00000000       0.00000000       0.00000000       0.00000000       0.00000000    -411.44567871
Pu       0.00000000       0.00000000       1.47070707       0.00000000       0.00000000     411.44567871
2
Properties=species:S:1:pos:R:3:forces:R:3 energy=31.49332889452294 pbc="F F F"
Pu       0.00000000       0.00000000       0.00000000       0.00000000       0.00000000    -339.26507568
Pu       0.00000000       0.00000000       1.53030303       0.00000000       0.00000000     339.26507568
2
Properties=species:S:1:pos:R:3:forces:R:3 energy=13.41314243680547 pbc="F F F"
Pu       0.00000000       0.00000000       0.00000000       0.00000000       0.00000000    -266.36975098
Pu       0.00000000       0.00000000       1.58989899       0.00000000       0.00000000     266.36975098
2
Properties=species:S:1:pos:R:3:forces:R:3 energy=0.08332459789003487 pbc="F F F"
Pu       0.00000000       0.00000000       0.00000000       0.00000000       0.00000000    -178.96566772
Pu       0.00000000       0.00000000       1.64949495       0.00000000       0.00000000     178.96566772
2
Properties=species:S:1:pos:R:3:forces:R:3 energy=-8.198042188175423 pbc="F F F"
Pu       0.00000000       0.00000000       0.00000000       0.00000000       0.00000000    -104.81780243
Pu       0.00000000       0.00000000       1.70909091       0.00000000       0.00000000     104.81780243
2
Properties=species:S:1:pos:R:3:forces:R:3 energy=-13.054288883631237 pbc="F F F"
Pu       0.00000000       0.00000000       0.00000000       0.00000000       0.00000000     -62.93505859
Pu       0.00000000       0.00000000       1.76868687       0.00000000       0.00000000      62.93505859
2
Properties=species:S:1:pos:R:3:forces:R:3 energy=-16.174569052036105 pbc="F F F"
Pu       0.00000000       0.00000000       0.00000000       0.00000000       0.00000000     -44.10390091
Pu       0.00000000       0.00000000       1.82828283       0.00000000       0.00000000      44.10390091
2
Properties=species:S:1:pos:R:3:forces:R:3 energy=-18.444159380117668 pbc="F F F"
Pu       0.00000000       0.00000000       0.00000000       0.00000000       0.00000000     -32.11606979
Pu       0.00000000       0.00000000       1.88787879       0.00000000       0.00000000      32.11606979
2
Properties=species:S:1:pos:R:3:forces:R:3 energy=-19.90408867325396 pbc="F F F"
Pu       0.00000000       0.00000000       0.00000000       0.00000000       0.00000000     -15.78090000
Pu       0.00000000       0.00000000       1.94747475       0.00000000       0.00000000      15.78090000
2
Properties=species:S:1:pos:R:3:forces:R:3 energy=-20.310553774104452 pbc="F F F"
Pu       0.00000000       0.00000000       0.00000000       0.00000000       0.00000000       0.95241094
Pu       0.00000000       0.00000000       2.00707071       0.00000000       0.00000000      -0.95241094
2
Properties=species:S:1:pos:R:3:forces:R:3 energy=-20.016629551743865 pbc="F F F"
Pu       0.00000000       0.00000000       0.00000000       0.00000000       0.00000000       6.95343733
Pu       0.00000000       0.00000000       2.06666667       0.00000000       0.00000000      -6.95343733
2
Properties=species:S:1:pos:R:3:forces:R:3 energy=-19.655355252576307 pbc="F F F"
Pu       0.00000000       0.00000000       0.00000000       0.00000000       0.00000000       4.29359674
Pu       0.00000000       0.00000000       2.12626263       0.00000000       0.00000000      -4.29359674
2
Properties=species:S:1:pos:R:3:forces:R:3 energy=-19.552044298997192 pbc="F F F"
Pu       0.00000000       0.00000000       0.00000000       0.00000000       0.00000000      -0.85338849
Pu       0.00000000       0.00000000       2.18585859       0.00000000       0.00000000       0.85338849
2
Properties=species:S:1:pos:R:3:forces:R:3 energy=-19.73494623520213 pbc="F F F"
Pu       0.00000000       0.00000000       0.00000000       0.00000000       0.00000000      -4.97145081
Pu       0.00000000       0.00000000       2.24545455       0.00000000       0.00000000       4.97145081
2
Properties=species:S:1:pos:R:3:forces:R:3 energy=-20.10337765250588 pbc="F F F"
Pu       0.00000000       0.00000000       0.00000000       0.00000000       0.00000000      -7.05761290
Pu       0.00000000       0.00000000       2.30505051       0.00000000       0.00000000       7.05761290
2
Properties=species:S:1:pos:R:3:forces:R:3 energy=-20.541571892591357 pbc="F F F"
Pu       0.00000000       0.00000000       0.00000000       0.00000000       0.00000000      -7.40830898
Pu       0.00000000       0.00000000       2.36464646       0.00000000       0.00000000       7.40830898
2
Properties=species:S:1:pos:R:3:forces:R:3 energy=-20.963553327492832 pbc="F F F"
Pu       0.00000000       0.00000000       0.00000000       0.00000000       0.00000000      -6.60792780
Pu       0.00000000       0.00000000       2.42424242       0.00000000       0.00000000       6.60792780
2
Properties=species:S:1:pos:R:3:forces:R:3 energy=-21.317671101953568 pbc="F F F"
Pu       0.00000000       0.00000000       0.00000000       0.00000000       0.00000000      -5.22886372
Pu       0.00000000       0.00000000       2.48383838       0.00000000       0.00000000       5.22886372
2
Properties=species:S:1:pos:R:3:forces:R:3 energy=-21.586286518319344 pbc="F F F"
Pu       0.00000000       0.00000000       0.00000000       0.00000000       0.00000000      -3.81564665
Pu       0.00000000       0.00000000       2.54343434       0.00000000       0.00000000       3.81564665
2
Properties=species:S:1:pos:R:3:forces:R:3 energy=-21.778273607811315 pbc="F F F"
Pu       0.00000000       0.00000000       0.00000000       0.00000000       0.00000000      -2.68524909
Pu       0.00000000       0.00000000       2.60303030       0.00000000       0.00000000       2.68524909
2
Properties=species:S:1:pos:R:3:forces:R:3 energy=-21.91305658050315 pbc="F F F"
Pu       0.00000000       0.00000000       0.00000000       0.00000000       0.00000000      -1.88819051
Pu       0.00000000       0.00000000       2.66262626       0.00000000       0.00000000       1.88819051
2
Properties=species:S:1:pos:R:3:forces:R:3 energy=-22.00824897041006 pbc="F F F"
Pu       0.00000000       0.00000000       0.00000000       0.00000000       0.00000000      -1.33839309
Pu       0.00000000       0.00000000       2.72222222       0.00000000       0.00000000       1.33839309
2
Properties=species:S:1:pos:R:3:forces:R:3 energy=-22.075431101404938 pbc="F F F"
Pu       0.00000000       0.00000000       0.00000000       0.00000000       0.00000000      -0.93337446
Pu       0.00000000       0.00000000       2.78181818       0.00000000       0.00000000       0.93337446
2
Properties=species:S:1:pos:R:3:forces:R:3 energy=-22.121016866138287 pbc="F F F"
Pu       0.00000000       0.00000000       0.00000000       0.00000000       0.00000000      -0.60610873
Pu       0.00000000       0.00000000       2.84141414       0.00000000       0.00000000       0.60610873
2
Properties=species:S:1:pos:R:3:forces:R:3 energy=-22.148631270795264 pbc="F F F"
Pu       0.00000000       0.00000000       0.00000000       0.00000000       0.00000000      -0.32789433
Pu       0.00000000       0.00000000       2.90101010       0.00000000       0.00000000       0.32789433
2
Properties=species:S:1:pos:R:3:forces:R:3 energy=-22.1609885459505 pbc="F F F"
Pu       0.00000000       0.00000000       0.00000000       0.00000000       0.00000000      -0.09474636
Pu       0.00000000       0.00000000       2.96060606       0.00000000       0.00000000       0.09474636
2
Properties=species:S:1:pos:R:3:forces:R:3 energy=-22.16096015377681 pbc="F F F"
Pu       0.00000000       0.00000000       0.00000000       0.00000000       0.00000000       0.08628440
Pu       0.00000000       0.00000000       3.02020202       0.00000000       0.00000000      -0.08628440
2
Properties=species:S:1:pos:R:3:forces:R:3 energy=-22.151886217746775 pbc="F F F"
Pu       0.00000000       0.00000000       0.00000000       0.00000000       0.00000000       0.20806007
Pu       0.00000000       0.00000000       3.07979798       0.00000000       0.00000000      -0.20806007
2
Properties=species:S:1:pos:R:3:forces:R:3 energy=-22.137343915510666 pbc="F F F"
Pu       0.00000000       0.00000000       0.00000000       0.00000000       0.00000000       0.27060014
Pu       0.00000000       0.00000000       3.13939394       0.00000000       0.00000000      -0.27060014
2
Properties=species:S:1:pos:R:3:forces:R:3 energy=-22.120634946340203 pbc="F F F"
Pu       0.00000000       0.00000000       0.00000000       0.00000000       0.00000000       0.28288719
Pu       0.00000000       0.00000000       3.19898990       0.00000000       0.00000000      -0.28288719
2
Properties=species:S:1:pos:R:3:forces:R:3 energy=-22.104327139268822 pbc="F F F"
Pu       0.00000000       0.00000000       0.00000000       0.00000000       0.00000000       0.25988996
Pu       0.00000000       0.00000000       3.25858586       0.00000000       0.00000000      -0.25988996
2
Properties=species:S:1:pos:R:3:forces:R:3 energy=-22.090037888707325 pbc="F F F"
Pu       0.00000000       0.00000000       0.00000000       0.00000000       0.00000000       0.21767053
Pu       0.00000000       0.00000000       3.31818182       0.00000000       0.00000000      -0.21767053
2
Properties=species:S:1:pos:R:3:forces:R:3 energy=-22.078506132216944 pbc="F F F"
Pu       0.00000000       0.00000000       0.00000000       0.00000000       0.00000000       0.16904618
Pu       0.00000000       0.00000000       3.37777778       0.00000000       0.00000000      -0.16904618
2
Properties=species:S:1:pos:R:3:forces:R:3 energy=-22.069872014830555 pbc="F F F"
Pu       0.00000000       0.00000000       0.00000000       0.00000000       0.00000000       0.12117922
Pu       0.00000000       0.00000000       3.43737374       0.00000000       0.00000000      -0.12117922
2
Properties=species:S:1:pos:R:3:forces:R:3 energy=-22.064008733217612 pbc="F F F"
Pu       0.00000000       0.00000000       0.00000000       0.00000000       0.00000000       0.07600202
Pu       0.00000000       0.00000000       3.49696970       0.00000000       0.00000000      -0.07600202
2
Properties=species:S:1:pos:R:3:forces:R:3 energy=-22.060757030378248 pbc="F F F"
Pu       0.00000000       0.00000000       0.00000000       0.00000000       0.00000000       0.03365254
Pu       0.00000000       0.00000000       3.55656566       0.00000000       0.00000000      -0.03365254
2
Properties=species:S:1:pos:R:3:forces:R:3 energy=-22.05988693864045 pbc="F F F"
Pu       0.00000000       0.00000000       0.00000000       0.00000000       0.00000000      -0.00296528
Pu       0.00000000       0.00000000       3.61616162       0.00000000       0.00000000       0.00296528
2
Properties=species:S:1:pos:R:3:forces:R:3 energy=-22.060850017837538 pbc="F F F"
Pu       0.00000000       0.00000000       0.00000000       0.00000000       0.00000000      -0.02643616
Pu       0.00000000       0.00000000       3.67575758       0.00000000       0.00000000       0.02643616
2
Properties=species:S:1:pos:R:3:forces:R:3 energy=-22.062626188374654 pbc="F F F"
Pu       0.00000000       0.00000000       0.00000000       0.00000000       0.00000000      -0.02943257
Pu       0.00000000       0.00000000       3.73535354       0.00000000       0.00000000       0.02943257
2
Properties=species:S:1:pos:R:3:forces:R:3 energy=-22.063950049161207 pbc="F F F"
Pu       0.00000000       0.00000000       0.00000000       0.00000000       0.00000000      -0.01213876
Pu       0.00000000       0.00000000       3.79494949       0.00000000       0.00000000       0.01213876
2
Properties=species:S:1:pos:R:3:forces:R:3 energy=-22.06382480926621 pbc="F F F"
Pu       0.00000000       0.00000000       0.00000000       0.00000000       0.00000000       0.01760203
Pu       0.00000000       0.00000000       3.85454545       0.00000000       0.00000000      -0.01760203
2
Properties=species:S:1:pos:R:3:forces:R:3 energy=-22.061763386241537 pbc="F F F"
Pu       0.00000000       0.00000000       0.00000000       0.00000000       0.00000000       0.05197672
Pu       0.00000000       0.00000000       3.91414141       0.00000000       0.00000000      -0.05197672
2
Properties=species:S:1:pos:R:3:forces:R:3 energy=-22.05760418822611 pbc="F F F"
Pu       0.00000000       0.00000000       0.00000000       0.00000000       0.00000000       0.08778045
Pu       0.00000000       0.00000000       3.97373737       0.00000000       0.00000000      -0.08778045
2
Properties=species:S:1:pos:R:3:forces:R:3 energy=-22.05128121637444 pbc="F F F"
Pu       0.00000000       0.00000000       0.00000000       0.00000000       0.00000000       0.12453713
Pu       0.00000000       0.00000000       4.03333333       0.00000000       0.00000000      -0.12453713
2
Properties=species:S:1:pos:R:3:forces:R:3 energy=-22.04275312188685 pbc="F F F"
Pu       0.00000000       0.00000000       0.00000000       0.00000000       0.00000000       0.16161640
Pu       0.00000000       0.00000000       4.09292929       0.00000000       0.00000000      -0.16161640
2
Properties=species:S:1:pos:R:3:forces:R:3 energy=-22.03204500609129 pbc="F F F"
Pu       0.00000000       0.00000000       0.00000000       0.00000000       0.00000000       0.19734380
Pu       0.00000000       0.00000000       4.15252525       0.00000000       0.00000000      -0.19734380
2
Properties=species:S:1:pos:R:3:forces:R:3 energy=-22.019303211095202 pbc="F F F"
Pu       0.00000000       0.00000000       0.00000000       0.00000000       0.00000000       0.22947057
Pu       0.00000000       0.00000000       4.21212121       0.00000000       0.00000000      -0.22947057
2
Properties=species:S:1:pos:R:3:forces:R:3 energy=-22.00480795460041 pbc="F F F"
Pu       0.00000000       0.00000000       0.00000000       0.00000000       0.00000000       0.25586531
Pu       0.00000000       0.00000000       4.27171717       0.00000000       0.00000000      -0.25586531
2
Properties=species:S:1:pos:R:3:forces:R:3 energy=-21.988951230158346 pbc="F F F"
Pu       0.00000000       0.00000000       0.00000000       0.00000000       0.00000000       0.27492011
Pu       0.00000000       0.00000000       4.33131313       0.00000000       0.00000000      -0.27492011
2
Properties=species:S:1:pos:R:3:forces:R:3 energy=-21.97220466574881 pbc="F F F"
Pu       0.00000000       0.00000000       0.00000000       0.00000000       0.00000000       0.28570363
Pu       0.00000000       0.00000000       4.39090909       0.00000000       0.00000000      -0.28570363
2
Properties=species:S:1:pos:R:3:forces:R:3 energy=-21.95506811342648 pbc="F F F"
Pu       0.00000000       0.00000000       0.00000000       0.00000000       0.00000000       0.28799501
Pu       0.00000000       0.00000000       4.45050505       0.00000000       0.00000000      -0.28799501
2
Properties=species:S:1:pos:R:3:forces:R:3 energy=-21.93803512032087 pbc="F F F"
Pu       0.00000000       0.00000000       0.00000000       0.00000000       0.00000000       0.28232908
Pu       0.00000000       0.00000000       4.51010101       0.00000000       0.00000000      -0.28232908
2
Properties=species:S:1:pos:R:3:forces:R:3 energy=-21.921547633778086 pbc="F F F"
Pu       0.00000000       0.00000000       0.00000000       0.00000000       0.00000000       0.27007294
Pu       0.00000000       0.00000000       4.56969697       0.00000000       0.00000000      -0.27007294
2
Properties=species:S:1:pos:R:3:forces:R:3 energy=-21.905933419987697 pbc="F F F"
Pu       0.00000000       0.00000000       0.00000000       0.00000000       0.00000000       0.25341877
Pu       0.00000000       0.00000000       4.62929293       0.00000000       0.00000000      -0.25341877
2
Properties=species:S:1:pos:R:3:forces:R:3 energy=-21.891373759433197 pbc="F F F"
Pu       0.00000000       0.00000000       0.00000000       0.00000000       0.00000000       0.23517688
Pu       0.00000000       0.00000000       4.68888889       0.00000000       0.00000000      -0.23517688
2
Properties=species:S:1:pos:R:3:forces:R:3 energy=-21.87787480498429 pbc="F F F"
Pu       0.00000000       0.00000000       0.00000000       0.00000000       0.00000000       0.21827656
Pu       0.00000000       0.00000000       4.74848485       0.00000000       0.00000000      -0.21827656
2
Properties=species:S:1:pos:R:3:forces:R:3 energy=-21.8652830877761 pbc="F F F"
Pu       0.00000000       0.00000000       0.00000000       0.00000000       0.00000000       0.20507140
Pu       0.00000000       0.00000000       4.80808081       0.00000000       0.00000000      -0.20507140
2
Properties=species:S:1:pos:R:3:forces:R:3 energy=-21.853336806545972 pbc="F F F"
Pu       0.00000000       0.00000000       0.00000000       0.00000000       0.00000000       0.19660547
Pu       0.00000000       0.00000000       4.86767677       0.00000000       0.00000000      -0.19660547
2
Properties=species:S:1:pos:R:3:forces:R:3 energy=-21.84176719587938 pbc="F F F"
Pu       0.00000000       0.00000000       0.00000000       0.00000000       0.00000000       0.19220486
Pu       0.00000000       0.00000000       4.92727273       0.00000000       0.00000000      -0.19220486
2
Properties=species:S:1:pos:R:3:forces:R:3 energy=-21.830387905498593 pbc="F F F"
Pu       0.00000000       0.00000000       0.00000000       0.00000000       0.00000000       0.18973644
Pu       0.00000000       0.00000000       4.98686869       0.00000000       0.00000000      -0.18973644
2
Properties=species:S:1:pos:R:3:forces:R:3 energy=-21.819158189857696 pbc="F F F"
Pu       0.00000000       0.00000000       0.00000000       0.00000000       0.00000000       0.18704930
Pu       0.00000000       0.00000000       5.04646465       0.00000000       0.00000000      -0.18704930
2
Properties=species:S:1:pos:R:3:forces:R:3 energy=-21.808091165338876 pbc="F F F"
Pu       0.00000000       0.00000000       0.00000000       0.00000000       0.00000000       0.18471748
Pu       0.00000000       0.00000000       5.10606061       0.00000000       0.00000000      -0.18471748
2
Properties=species:S:1:pos:R:3:forces:R:3 energy=-21.797023090759954 pbc="F F F"
Pu       0.00000000       0.00000000       0.00000000       0.00000000       0.00000000       0.18838614
Pu       0.00000000       0.00000000       5.16565657       0.00000000       0.00000000      -0.18838614
2
Properties=species:S:1:pos:R:3:forces:R:3 energy=-21.785355849966365 pbc="F F F"
Pu       0.00000000       0.00000000       0.00000000       0.00000000       0.00000000       0.20590457
Pu       0.00000000       0.00000000       5.22525253       0.00000000       0.00000000      -0.20590457
2
Properties=species:S:1:pos:R:3:forces:R:3 energy=-21.77220748665333 pbc="F F F"
Pu       0.00000000       0.00000000       0.00000000       0.00000000       0.00000000       0.23661327
Pu       0.00000000       0.00000000       5.28484848       0.00000000       0.00000000      -0.23661327
2
Properties=species:S:1:pos:R:3:forces:R:3 energy=-21.757203855418794 pbc="F F F"
Pu       0.00000000       0.00000000       0.00000000       0.00000000       0.00000000       0.26466072
Pu       0.00000000       0.00000000       5.34444444       0.00000000       0.00000000      -0.26466072
2
Properties=species:S:1:pos:R:3:forces:R:3 energy=-21.74107161078325 pbc="F F F"
Pu       0.00000000       0.00000000       0.00000000       0.00000000       0.00000000       0.27280176
Pu       0.00000000       0.00000000       5.40404040       0.00000000       0.00000000      -0.27280176
2
Properties=species:S:1:pos:R:3:forces:R:3 energy=-21.725044990086715 pbc="F F F"
Pu       0.00000000       0.00000000       0.00000000       0.00000000       0.00000000       0.26359928
Pu       0.00000000       0.00000000       5.46363636       0.00000000       0.00000000      -0.26359928
2
Properties=species:S:1:pos:R:3:forces:R:3 energy=-21.70953827349771 pbc="F F F"
Pu       0.00000000       0.00000000       0.00000000       0.00000000       0.00000000       0.26046196
Pu       0.00000000       0.00000000       5.52323232       0.00000000       0.00000000      -0.26046196
2
Properties=species:S:1:pos:R:3:forces:R:3 energy=-21.69339989665624 pbc="F F F"
Pu       0.00000000       0.00000000       0.00000000       0.00000000       0.00000000       0.28679788
Pu       0.00000000       0.00000000       5.58282828       0.00000000       0.00000000      -0.28679788
2
Properties=species:S:1:pos:R:3:forces:R:3 energy=-21.674852665843808 pbc="F F F"
Pu       0.00000000       0.00000000       0.00000000       0.00000000       0.00000000       0.33702472
Pu       0.00000000       0.00000000       5.64242424       0.00000000       0.00000000      -0.33702472
2
Properties=species:S:1:pos:R:3:forces:R:3 energy=-21.653565087913517 pbc="F F F"
Pu       0.00000000       0.00000000       0.00000000       0.00000000       0.00000000       0.36957940
Pu       0.00000000       0.00000000       5.70202020       0.00000000       0.00000000      -0.36957940
2
Properties=species:S:1:pos:R:3:forces:R:3 energy=-21.63203418537754 pbc="F F F"
Pu       0.00000000       0.00000000       0.00000000       0.00000000       0.00000000       0.34241164
Pu       0.00000000       0.00000000       5.76161616       0.00000000       0.00000000      -0.34241164
2
Properties=species:S:1:pos:R:3:forces:R:3 energy=-21.613965929334693 pbc="F F F"
Pu       0.00000000       0.00000000       0.00000000       0.00000000       0.00000000       0.25592995
Pu       0.00000000       0.00000000       5.82121212       0.00000000       0.00000000      -0.25592995
2
Properties=species:S:1:pos:R:3:forces:R:3 energy=-21.601982726791014 pbc="F F F"
Pu       0.00000000       0.00000000       0.00000000       0.00000000       0.00000000       0.14807275
Pu       0.00000000       0.00000000       5.88080808       0.00000000       0.00000000      -0.14807275
2
Properties=species:S:1:pos:R:3:forces:R:3 energy=-21.595820767125513 pbc="F F F"
Pu       0.00000000       0.00000000       0.00000000       0.00000000       0.00000000       0.06393570
Pu       0.00000000       0.00000000       5.94040404       0.00000000       0.00000000      -0.06393570
2
Properties=species:S:1:pos:R:3:forces:R:3 energy=-21.593276130368487 pbc="F F F"
Pu       0.00000000       0.00000000       0.00000000       0.00000000       0.00000000       0.03215090
Pu       0.00000000       0.00000000       6.00000000       0.00000000       0.00000000      -0.03215090
