2
Properties=species:S:1:pos:R:3:forces:R:3 energy=5344.168571475949 pbc="F F F"
Si       0.00000000       0.00000000       0.00000000       0.00000000       0.00000000 -111225.38281250
Si       0.00000000       0.00000000       0.10000000       0.00000000       0.00000000  111225.38281250
2
Properties=species:S:1:pos:R:3:forces:R:3 energy=1848.1778488196992 pbc="F F F"
Si       0.00000000       0.00000000       0.00000000       0.00000000       0.00000000  -28606.77929688
Si       0.00000000       0.00000000       0.15959596       0.00000000       0.00000000   28606.77929688
2
Properties=species:S:1:pos:R:3:forces:R:3 energy=807.4836959876678 pbc="F F F"
Si       0.00000000       0.00000000       0.00000000       0.00000000       0.00000000  -10125.64257812
Si       0.00000000       0.00000000       0.21919192       0.00000000       0.00000000   10125.64257812
2
Properties=species:S:1:pos:R:3:forces:R:3 energy=406.7328414986482 pbc="F F F"
Si       0.00000000       0.00000000       0.00000000       0.00000000       0.00000000   -4305.76611328
Si       0.00000000       0.00000000       0.27878788       0.00000000       0.00000000    4305.76611328
2
Properties=species:S:1:pos:R:3:forces:R:3 energy=226.4782486063082 pbc="F F F"
Si       0.00000000       0.00000000       0.00000000       0.00000000       0.00000000   -2064.61206055
Si       0.00000000       0.00000000       0.33838384       0.00000000       0.00000000    2064.61206055
2
Properties=species:S:1:pos:R:3:forces:R:3 energy=136.67667391194826 pbc="F F F"
Si       0.00000000       0.00000000       0.00000000       0.00000000       0.00000000   -1072.78942871
Si       0.00000000       0.00000000       0.39797980       0.00000000       0.00000000    1072.78942871
2
Properties=species:S:1:pos:R:3:forces:R:3 energy=88.81379704203316 pbc="F F F"
Si       0.00000000       0.00000000       0.00000000       0.00000000       0.00000000    -587.30291748
Si       0.00000000       0.00000000       0.45757576       0.00000000       0.00000000     587.30291748
2
Properties=species:S:1:pos:R:3:forces:R:3 energy=62.21952065816001 pbc="F F F"
Si       0.00000000       0.00000000       0.00000000       0.00000000       0.00000000    -330.81735229
Si       0.00000000       0.00000000       0.51717172       0.00000000       0.00000000     330.81735229
2
Properties=species:S:1:pos:R:3:forces:R:3 energy=47.18452470464072 pbc="F F F"
Si       0.00000000       0.00000000       0.00000000       0.00000000       0.00000000    -186.94551086
Si       0.00000000       0.00000000       0.57676768       0.00000000       0.00000000     186.94551086
2
Properties=species:S:1:pos:R:3:forces:R:3 energy=38.75887710209355 pbc="F F F"
Si       0.00000000       0.00000000       0.00000000       0.00000000       0.00000000    -103.23789978
Si       0.00000000       0.00000000       0.63636364       0.00000000       0.00000000     103.23789978
2
Properties=species:S:1:pos:R:3:forces:R:3 energy=34.180721799927326 pbc="F F F"
Si       0.00000000       0.00000000       0.00000000       0.00000000       0.00000000     -55.08492661
Si       0.00000000       0.00000000       0.69595960       0.00000000       0.00000000      55.08492661
2
Properties=species:S:1:pos:R:3:forces:R:3 energy=31.7381352274093 pbc="F F F"
Si       0.00000000       0.00000000       0.00000000       0.00000000       0.00000000     -29.92762947
Si       0.00000000       0.00000000       0.75555556       0.00000000       0.00000000      29.92762947
2
Properties=species:S:1:pos:R:3:forces:R:3 energy=30.33530750503682 pbc="F F F"
Si       0.00000000       0.00000000       0.00000000       0.00000000       0.00000000     -18.84259796
Si       0.00000000       0.00000000       0.81515152       0.00000000       0.00000000      18.84259796
2
Properties=species:S:1:pos:R:3:forces:R:3 energy=29.346798082793043 pbc="F F F"
Si       0.00000000       0.00000000       0.00000000       0.00000000       0.00000000     -15.21586037
Si       0.00000000       0.00000000       0.87474747       0.00000000       0.00000000      15.21586037
2
Properties=species:S:1:pos:R:3:forces:R:3 energy=28.440190505449696 pbc="F F F"
Si       0.00000000       0.00000000       0.00000000       0.00000000       0.00000000     -15.71941853
Si       0.00000000       0.00000000       0.93434343       0.00000000       0.00000000      15.71941853
2
Properties=species:S:1:pos:R:3:forces:R:3 energy=27.415239958141342 pbc="F F F"
Si       0.00000000       0.00000000       0.00000000       0.00000000       0.00000000     -19.40982628
Si       0.00000000       0.00000000       0.99393939       0.00000000       0.00000000      19.40982628
2
Properties=species:S:1:pos:R:3:forces:R:3 energy=25.988514557577112 pbc="F F F"
Si       0.00000000       0.00000000       0.00000000       0.00000000       0.00000000     -29.73685455
Si       0.00000000       0.00000000       1.05353535       0.00000000       0.00000000      29.73685455
2
Properties=species:S:1:pos:R:3:forces:R:3 energy=23.78120926994743 pbc="F F F"
Si       0.00000000       0.00000000       0.00000000       0.00000000       0.00000000     -44.42265320
Si       0.00000000       0.00000000       1.11313131       0.00000000       0.00000000      44.42265320
2
Properties=species:S:1:pos:R:3:forces:R:3 energy=20.7501018357787 pbc="F F F"
Si       0.00000000       0.00000000       0.00000000       0.00000000       0.00000000     -56.39596939
Si       0.00000000       0.00000000       1.17272727       0.00000000       0.00000000      56.39596939
2
Properties=species:S:1:pos:R:3:forces:R:3 energy=17.204251585038843 pbc="F F F"
Si       0.00000000       0.00000000       0.00000000       0.00000000       0.00000000     -61.14800644
Si       0.00000000       0.00000000       1.23232323       0.00000000       0.00000000      61.14800644
2
Properties=species:S:1:pos:R:3:forces:R:3 energy=13.628643159538345 pbc="F F F"
Si       0.00000000       0.00000000       0.00000000       0.00000000       0.00000000     -57.79487228
Si       0.00000000       0.00000000       1.29191919       0.00000000       0.00000000      57.79487228
2
Properties=species:S:1:pos:R:3:forces:R:3 energy=10.36906577789492 pbc="F F F"
Si       0.00000000       0.00000000       0.00000000       0.00000000       0.00000000     -51.64334106
Si       0.00000000       0.00000000       1.35151515       0.00000000       0.00000000      51.64334106
2
Properties=species:S:1:pos:R:3:forces:R:3 energy=7.45131856400167 pbc="F F F"
Si       0.00000000       0.00000000       0.00000000       0.00000000       0.00000000     -46.40617371
Si       0.00000000       0.00000000       1.41111111       0.00000000       0.00000000      46.40617371
2
Properties=species:S:1:pos:R:3:forces:R:3 energy=4.839782136936904 pbc="F F F"
Si       0.00000000       0.00000000       0.00000000       0.00000000       0.00000000     -41.09263992
Si       0.00000000       0.00000000       1.47070707       0.00000000       0.00000000      41.09263992
2
Properties=species:S:1:pos:R:3:forces:R:3 energy=2.5740391610199427 pbc="F F F"
Si       0.00000000       0.00000000       0.00000000       0.00000000       0.00000000     -34.80964279
Si       0.00000000       0.00000000       1.53030303       0.00000000       0.00000000      34.80964279
2
Properties=species:S:1:pos:R:3:forces:R:3 energy=0.6952901817054419 pbc="F F F"
Si       0.00000000       0.00000000       0.00000000       0.00000000       0.00000000     -28.29942703
Si       0.00000000       0.00000000       1.58989899       0.00000000       0.00000000      28.29942703
2
Properties=species:S:1:pos:R:3:forces:R:3 energy=-0.8137159581799751 pbc="F F F"
Si       0.00000000       0.00000000       0.00000000       0.00000000       0.00000000     -22.50101280
Si       0.00000000       0.00000000       1.64949495       0.00000000       0.00000000      22.50101280
2
Properties=species:S:1:pos:R:3:forces:R:3 energy=-2.006489730372702 pbc="F F F"
Si       0.00000000       0.00000000       0.00000000       0.00000000       0.00000000     -17.69100189
Si       0.00000000       0.00000000       1.70909091       0.00000000       0.00000000      17.69100189
2
Properties=species:S:1:pos:R:3:forces:R:3 energy=-2.9404579482170563 pbc="F F F"
Si       0.00000000       0.00000000       0.00000000       0.00000000       0.00000000     -13.78994942
Si       0.00000000       0.00000000       1.76868687       0.00000000       0.00000000      13.78994942
2
Properties=species:S:1:pos:R:3:forces:R:3 energy=-3.664461814800753 pbc="F F F"
Si       0.00000000       0.00000000       0.00000000       0.00000000       0.00000000     -10.60912037
Si       0.00000000       0.00000000       1.82828283       0.00000000       0.00000000      10.60912037
2
Properties=species:S:1:pos:R:3:forces:R:3 energy=-4.21514081944618 pbc="F F F"
Si       0.00000000       0.00000000       0.00000000       0.00000000       0.00000000      -7.94226027
Si       0.00000000       0.00000000       1.88787879       0.00000000       0.00000000       7.94226027
2
Properties=species:S:1:pos:R:3:forces:R:3 energy=-4.618444026149969 pbc="F F F"
Si       0.00000000       0.00000000       0.00000000       0.00000000       0.00000000      -5.64776134
Si       0.00000000       0.00000000       1.94747475       0.00000000       0.00000000       5.64776134
2
Properties=species:S:1:pos:R:3:forces:R:3 energy=-4.89471374540037 pbc="F F F"
Si       0.00000000       0.00000000       0.00000000       0.00000000       0.00000000      -3.67781043
Si       0.00000000       0.00000000       2.00707071       0.00000000       0.00000000       3.67781043
2
Properties=species:S:1:pos:R:3:forces:R:3 energy=-5.063484349645587 pbc="F F F"
Si       0.00000000       0.00000000       0.00000000       0.00000000       0.00000000      -2.04393101
Si       0.00000000       0.00000000       2.06666667       0.00000000       0.00000000       2.04393101
2
Properties=species:S:1:pos:R:3:forces:R:3 energy=-5.145355324497234 pbc="F F F"
Si       0.00000000       0.00000000       0.00000000       0.00000000       0.00000000      -0.76248682
Si       0.00000000       0.00000000       2.12626263       0.00000000       0.00000000       0.76248682
2
Properties=species:S:1:pos:R:3:forces:R:3 energy=-5.161141890207039 pbc="F F F"
Si       0.00000000       0.00000000       0.00000000       0.00000000       0.00000000       0.17909814
Si       0.00000000       0.00000000       2.18585859       0.00000000       0.00000000      -0.17909814
2
Properties=species:S:1:pos:R:3:forces:R:3 energy=-5.129847531251853 pbc="F F F"
Si       0.00000000       0.00000000       0.00000000       0.00000000       0.00000000       0.82762194
Si       0.00000000       0.00000000       2.24545455       0.00000000       0.00000000      -0.82762194
2
Properties=species:S:1:pos:R:3:forces:R:3 energy=-5.066945394356086 pbc="F F F"
Si       0.00000000       0.00000000       0.00000000       0.00000000       0.00000000       1.25221443
Si       0.00000000       0.00000000       2.30505051       0.00000000       0.00000000      -1.25221443
2
Properties=species:S:1:pos:R:3:forces:R:3 energy=-4.9835715132022465 pbc="F F F"
Si       0.00000000       0.00000000       0.00000000       0.00000000       0.00000000       1.52655530
Si       0.00000000       0.00000000       2.36464646       0.00000000       0.00000000      -1.52655530
2
Properties=species:S:1:pos:R:3:forces:R:3 energy=-4.886688890778813 pbc="F F F"
Si       0.00000000       0.00000000       0.00000000       0.00000000       0.00000000       1.71489143
Si       0.00000000       0.00000000       2.42424242       0.00000000       0.00000000      -1.71489143
2
Properties=species:S:1:pos:R:3:forces:R:3 energy=-4.779940645788207 pbc="F F F"
Si       0.00000000       0.00000000       0.00000000       0.00000000       0.00000000       1.86375117
Si       0.00000000       0.00000000       2.48383838       0.00000000       0.00000000      -1.86375117
2
Properties=species:S:1:pos:R:3:forces:R:3 energy=-4.6648039868256825 pbc="F F F"
Si       0.00000000       0.00000000       0.00000000       0.00000000       0.00000000       1.99898851
Si       0.00000000       0.00000000       2.54343434       0.00000000       0.00000000      -1.99898851
2
Properties=species:S:1:pos:R:3:forces:R:3 energy=-4.541805886317718 pbc="F F F"
Si       0.00000000       0.00000000       0.00000000       0.00000000       0.00000000       2.12730956
Si       0.00000000       0.00000000       2.60303030       0.00000000       0.00000000      -2.12730956
2
Properties=species:S:1:pos:R:3:forces:R:3 energy=-4.4115033241912 pbc="F F F"
Si       0.00000000       0.00000000       0.00000000       0.00000000       0.00000000       2.24248528
Si       0.00000000       0.00000000       2.66262626       0.00000000       0.00000000      -2.24248528
2
Properties=species:S:1:pos:R:3:forces:R:3 energy=-4.274971150353688 pbc="F F F"
Si       0.00000000       0.00000000       0.00000000       0.00000000       0.00000000       2.33513308
Si       0.00000000       0.00000000       2.72222222       0.00000000       0.00000000      -2.33513308
2
Properties=species:S:1:pos:R:3:forces:R:3 energy=-4.133718781840717 pbc="F F F"
Si       0.00000000       0.00000000       0.00000000       0.00000000       0.00000000       2.40055156
Si       0.00000000       0.00000000       2.78181818       0.00000000       0.00000000      -2.40055156
2
Properties=species:S:1:pos:R:3:forces:R:3 energy=-3.989404521420021 pbc="F F F"
Si       0.00000000       0.00000000       0.00000000       0.00000000       0.00000000       2.43774676
Si       0.00000000       0.00000000       2.84141414       0.00000000       0.00000000      -2.43774676
2
Properties=species:S:1:pos:R:3:forces:R:3 energy=-3.8437404713317473 pbc="F F F"
Si       0.00000000       0.00000000       0.00000000       0.00000000       0.00000000       2.44583321
Si       0.00000000       0.00000000       2.90101010       0.00000000       0.00000000      -2.44583321
2
Properties=species:S:1:pos:R:3:forces:R:3 energy=-3.6984451096163626 pbc="F F F"
Si       0.00000000       0.00000000       0.00000000       0.00000000       0.00000000       2.42559171
Si       0.00000000       0.00000000       2.96060606       0.00000000       0.00000000      -2.42559171
2
Properties=species:S:1:pos:R:3:forces:R:3 energy=-3.5551357505883705 pbc="F F F"
Si       0.00000000       0.00000000       0.00000000       0.00000000       0.00000000       2.37977219
Si       0.00000000       0.00000000       3.02020202       0.00000000       0.00000000      -2.37977219
2
Properties=species:S:1:pos:R:3:forces:R:3 energy=-3.415248975378103 pbc="F F F"
Si       0.00000000       0.00000000       0.00000000       0.00000000       0.00000000       2.31115484
Si       0.00000000       0.00000000       3.07979798       0.00000000       0.00000000      -2.31115484
2
Properties=species:S:1:pos:R:3:forces:R:3 energy=-3.2800742779996686 pbc="F F F"
Si       0.00000000       0.00000000       0.00000000       0.00000000       0.00000000       2.22192764
Si       0.00000000       0.00000000       3.13939394       0.00000000       0.00000000      -2.22192764
2
Properties=species:S:1:pos:R:3:forces:R:3 energy=-3.1507759521830536 pbc="F F F"
Si       0.00000000       0.00000000       0.00000000       0.00000000       0.00000000       2.11445546
Si       0.00000000       0.00000000       3.19898990       0.00000000       0.00000000      -2.11445546
2
Properties=species:S:1:pos:R:3:forces:R:3 energy=-3.028343966876774 pbc="F F F"
Si       0.00000000       0.00000000       0.00000000       0.00000000       0.00000000       1.99210870
Si       0.00000000       0.00000000       3.25858586       0.00000000       0.00000000      -1.99210870
2
Properties=species:S:1:pos:R:3:forces:R:3 energy=-2.913538335076516 pbc="F F F"
Si       0.00000000       0.00000000       0.00000000       0.00000000       0.00000000       1.85944140
Si       0.00000000       0.00000000       3.31818182       0.00000000       0.00000000      -1.85944140
2
Properties=species:S:1:pos:R:3:forces:R:3 energy=-2.806816362177046 pbc="F F F"
Si       0.00000000       0.00000000       0.00000000       0.00000000       0.00000000       1.72165859
Si       0.00000000       0.00000000       3.37777778       0.00000000       0.00000000      -1.72165859
2
Properties=species:S:1:pos:R:3:forces:R:3 energy=-2.7083308918633358 pbc="F F F"
Si       0.00000000       0.00000000       0.00000000       0.00000000       0.00000000       1.58381164
Si       0.00000000       0.00000000       3.43737374       0.00000000       0.00000000      -1.58381164
2
Properties=species:S:1:pos:R:3:forces:R:3 energy=-2.617956190541682 pbc="F F F"
Si       0.00000000       0.00000000       0.00000000       0.00000000       0.00000000       1.45008790
Si       0.00000000       0.00000000       3.49696970       0.00000000       0.00000000      -1.45008790
2
Properties=species:S:1:pos:R:3:forces:R:3 energy=-2.5353498283044753 pbc="F F F"
Si       0.00000000       0.00000000       0.00000000       0.00000000       0.00000000       1.32345760
Si       0.00000000       0.00000000       3.55656566       0.00000000       0.00000000      -1.32345760
2
Properties=species:S:1:pos:R:3:forces:R:3 energy=-2.460033415633478 pbc="F F F"
Si       0.00000000       0.00000000       0.00000000       0.00000000       0.00000000       1.20568120
Si       0.00000000       0.00000000       3.61616162       0.00000000       0.00000000      -1.20568120
2
Properties=species:S:1:pos:R:3:forces:R:3 energy=-2.3914520321505486 pbc="F F F"
Si       0.00000000       0.00000000       0.00000000       0.00000000       0.00000000       1.09750664
Si       0.00000000       0.00000000       3.67575758       0.00000000       0.00000000      -1.09750664
2
Properties=species:S:1:pos:R:3:forces:R:3 energy=-2.3290282264259354 pbc="F F F"
Si       0.00000000       0.00000000       0.00000000       0.00000000       0.00000000       0.99897510
Si       0.00000000       0.00000000       3.73535354       0.00000000       0.00000000      -0.99897510
2
Properties=species:S:1:pos:R:3:forces:R:3 energy=-2.272198468678303 pbc="F F F"
Si       0.00000000       0.00000000       0.00000000       0.00000000       0.00000000       0.90970999
Si       0.00000000       0.00000000       3.79494949       0.00000000       0.00000000      -0.90970999
2
Properties=species:S:1:pos:R:3:forces:R:3 energy=-2.2204247089081273 pbc="F F F"
Si       0.00000000       0.00000000       0.00000000       0.00000000       0.00000000       0.82912904
Si       0.00000000       0.00000000       3.85454545       0.00000000       0.00000000      -0.82912904
2
Properties=species:S:1:pos:R:3:forces:R:3 energy=-2.1732130599099806 pbc="F F F"
Si       0.00000000       0.00000000       0.00000000       0.00000000       0.00000000       0.75659919
Si       0.00000000       0.00000000       3.91414141       0.00000000       0.00000000      -0.75659919
2
Properties=species:S:1:pos:R:3:forces:R:3 energy=-2.130096517093238 pbc="F F F"
Si       0.00000000       0.00000000       0.00000000       0.00000000       0.00000000       0.69150770
Si       0.00000000       0.00000000       3.97373737       0.00000000       0.00000000      -0.69150770
2
Properties=species:S:1:pos:R:3:forces:R:3 energy=-2.0906531995032505 pbc="F F F"
Si       0.00000000       0.00000000       0.00000000       0.00000000       0.00000000       0.63331866
Si       0.00000000       0.00000000       4.03333333       0.00000000       0.00000000      -0.63331866
2
Properties=species:S:1:pos:R:3:forces:R:3 energy=-2.05448358284691 pbc="F F F"
Si       0.00000000       0.00000000       0.00000000       0.00000000       0.00000000       0.58152449
Si       0.00000000       0.00000000       4.09292929       0.00000000       0.00000000      -0.58152449
2
Properties=species:S:1:pos:R:3:forces:R:3 energy=-2.021222211345343 pbc="F F F"
Si       0.00000000       0.00000000       0.00000000       0.00000000       0.00000000       0.53563464
Si       0.00000000       0.00000000       4.15252525       0.00000000       0.00000000      -0.53563464
2
Properties=species:S:1:pos:R:3:forces:R:3 energy=-1.990534091776872 pbc="F F F"
Si       0.00000000       0.00000000       0.00000000       0.00000000       0.00000000       0.49511427
Si       0.00000000       0.00000000       4.21212121       0.00000000       0.00000000      -0.49511427
2
Properties=species:S:1:pos:R:3:forces:R:3 energy=-1.9621144063731524 pbc="F F F"
Si       0.00000000       0.00000000       0.00000000       0.00000000       0.00000000       0.45934957
Si       0.00000000       0.00000000       4.27171717       0.00000000       0.00000000      -0.45934957
2
Properties=species:S:1:pos:R:3:forces:R:3 energy=-1.935702032986095 pbc="F F F"
Si       0.00000000       0.00000000       0.00000000       0.00000000       0.00000000       0.42765185
Si       0.00000000       0.00000000       4.33131313       0.00000000       0.00000000      -0.42765185
2
Properties=species:S:1:pos:R:3:forces:R:3 energy=-1.911075890029583 pbc="F F F"
Si       0.00000000       0.00000000       0.00000000       0.00000000       0.00000000       0.39927518
Si       0.00000000       0.00000000       4.39090909       0.00000000       0.00000000      -0.39927518
2
Properties=species:S:1:pos:R:3:forces:R:3 energy=-1.888060040304169 pbc="F F F"
Si       0.00000000       0.00000000       0.00000000       0.00000000       0.00000000       0.37347969
Si       0.00000000       0.00000000       4.45050505       0.00000000       0.00000000      -0.37347969
2
Properties=species:S:1:pos:R:3:forces:R:3 energy=-1.8665222957476026 pbc="F F F"
Si       0.00000000       0.00000000       0.00000000       0.00000000       0.00000000       0.34960395
Si       0.00000000       0.00000000       4.51010101       0.00000000       0.00000000      -0.34960395
2
Properties=species:S:1:pos:R:3:forces:R:3 energy=-1.846362477903656 pbc="F F F"
Si       0.00000000       0.00000000       0.00000000       0.00000000       0.00000000       0.32712263
Si       0.00000000       0.00000000       4.56969697       0.00000000       0.00000000      -0.32712263
2
Properties=species:S:1:pos:R:3:forces:R:3 energy=-1.8275114036432267 pbc="F F F"
Si       0.00000000       0.00000000       0.00000000       0.00000000       0.00000000       0.30565158
Si       0.00000000       0.00000000       4.62929293       0.00000000       0.00000000      -0.30565158
2
Properties=species:S:1:pos:R:3:forces:R:3 energy=-1.8099168964957741 pbc="F F F"
Si       0.00000000       0.00000000       0.00000000       0.00000000       0.00000000       0.28493008
Si       0.00000000       0.00000000       4.68888889       0.00000000       0.00000000      -0.28493008
2
Properties=species:S:1:pos:R:3:forces:R:3 energy=-1.7935392214343118 pbc="F F F"
Si       0.00000000       0.00000000       0.00000000       0.00000000       0.00000000       0.26475352
Si       0.00000000       0.00000000       4.74848485       0.00000000       0.00000000      -0.26475352
2
Properties=species:S:1:pos:R:3:forces:R:3 energy=-1.7783535439209799 pbc="F F F"
Si       0.00000000       0.00000000       0.00000000       0.00000000       0.00000000       0.24492575
Si       0.00000000       0.00000000       4.80808081       0.00000000       0.00000000      -0.24492575
2
Properties=species:S:1:pos:R:3:forces:R:3 energy=-1.7643428577131766 pbc="F F F"
Si       0.00000000       0.00000000       0.00000000       0.00000000       0.00000000       0.22525878
Si       0.00000000       0.00000000       4.86767677       0.00000000       0.00000000      -0.22525878
2
Properties=species:S:1:pos:R:3:forces:R:3 energy=-1.7515035512702126 pbc="F F F"
Si       0.00000000       0.00000000       0.00000000       0.00000000       0.00000000       0.20561394
Si       0.00000000       0.00000000       4.92727273       0.00000000       0.00000000      -0.20561394
2
Properties=species:S:1:pos:R:3:forces:R:3 energy=-1.7398346547426269 pbc="F F F"
Si       0.00000000       0.00000000       0.00000000       0.00000000       0.00000000       0.18599971
Si       0.00000000       0.00000000       4.98686869       0.00000000       0.00000000      -0.18599971
2
Properties=species:S:1:pos:R:3:forces:R:3 energy=-1.7293295856048485 pbc="F F F"
Si       0.00000000       0.00000000       0.00000000       0.00000000       0.00000000       0.16666855
Si       0.00000000       0.00000000       5.04646465       0.00000000       0.00000000      -0.16666855
2
Properties=species:S:1:pos:R:3:forces:R:3 energy=-1.7199524355100435 pbc="F F F"
Si       0.00000000       0.00000000       0.00000000       0.00000000       0.00000000       0.14823803
Si       0.00000000       0.00000000       5.10606061       0.00000000       0.00000000      -0.14823803
2
Properties=species:S:1:pos:R:3:forces:R:3 energy=-1.7116199827346774 pbc="F F F"
Si       0.00000000       0.00000000       0.00000000       0.00000000       0.00000000       0.13180444
Si       0.00000000       0.00000000       5.16565657       0.00000000       0.00000000      -0.13180444
2
Properties=species:S:1:pos:R:3:forces:R:3 energy=-1.7041723849082622 pbc="F F F"
Si       0.00000000       0.00000000       0.00000000       0.00000000       0.00000000       0.11882462
Si       0.00000000       0.00000000       5.22525253       0.00000000       0.00000000      -0.11882462
2
Properties=species:S:1:pos:R:3:forces:R:3 energy=-1.6973748891250995 pbc="F F F"
Si       0.00000000       0.00000000       0.00000000       0.00000000       0.00000000       0.10990247
Si       0.00000000       0.00000000       5.28484848       0.00000000       0.00000000      -0.10990247
2
Properties=species:S:1:pos:R:3:forces:R:3 energy=-1.6910354443717306 pbc="F F F"
Si       0.00000000       0.00000000       0.00000000       0.00000000       0.00000000       0.10276209
Si       0.00000000       0.00000000       5.34444444       0.00000000       0.00000000      -0.10276209
2
Properties=species:S:1:pos:R:3:forces:R:3 energy=-1.685183420010639 pbc="F F F"
Si       0.00000000       0.00000000       0.00000000       0.00000000       0.00000000       0.09283002
Si       0.00000000       0.00000000       5.40404040       0.00000000       0.00000000      -0.09283002
2
Properties=species:S:1:pos:R:3:forces:R:3 energy=-1.6800661811810313 pbc="F F F"
Si       0.00000000       0.00000000       0.00000000       0.00000000       0.00000000       0.07826792
Si       0.00000000       0.00000000       5.46363636       0.00000000       0.00000000      -0.07826792
2
Properties=species:S:1:pos:R:3:forces:R:3 energy=-1.6758694554837719 pbc="F F F"
Si       0.00000000       0.00000000       0.00000000       0.00000000       0.00000000       0.06310644
Si       0.00000000       0.00000000       5.52323232       0.00000000       0.00000000      -0.06310644
2
Properties=species:S:1:pos:R:3:forces:R:3 energy=-1.6724287534259132 pbc="F F F"
Si       0.00000000       0.00000000       0.00000000       0.00000000       0.00000000       0.05368328
Si       0.00000000       0.00000000       5.58282828       0.00000000       0.00000000      -0.05368328
2
Properties=species:S:1:pos:R:3:forces:R:3 energy=-1.669317108833672 pbc="F F F"
Si       0.00000000       0.00000000       0.00000000       0.00000000       0.00000000       0.05170675
Si       0.00000000       0.00000000       5.64242424       0.00000000       0.00000000      -0.05170675
2
Properties=species:S:1:pos:R:3:forces:R:3 energy=-1.6662280076008658 pbc="F F F"
Si       0.00000000       0.00000000       0.00000000       0.00000000       0.00000000       0.05147587
Si       0.00000000       0.00000000       5.70202020       0.00000000       0.00000000      -0.05147587
2
Properties=species:S:1:pos:R:3:forces:R:3 energy=-1.6632945260041951 pbc="F F F"
Si       0.00000000       0.00000000       0.00000000       0.00000000       0.00000000       0.04587327
Si       0.00000000       0.00000000       5.76161616       0.00000000       0.00000000      -0.04587327
2
Properties=species:S:1:pos:R:3:forces:R:3 energy=-1.6608911910047888 pbc="F F F"
Si       0.00000000       0.00000000       0.00000000       0.00000000       0.00000000       0.03392218
Si       0.00000000       0.00000000       5.82121212       0.00000000       0.00000000      -0.03392218
2
Properties=species:S:1:pos:R:3:forces:R:3 energy=-1.6592922384973052 pbc="F F F"
Si       0.00000000       0.00000000       0.00000000       0.00000000       0.00000000       0.02004072
Si       0.00000000       0.00000000       5.88080808       0.00000000       0.00000000      -0.02004072
2
Properties=species:S:1:pos:R:3:forces:R:3 energy=-1.6584342470235929 pbc="F F F"
Si       0.00000000       0.00000000       0.00000000       0.00000000       0.00000000       0.00941939
Si       0.00000000       0.00000000       5.94040404       0.00000000       0.00000000      -0.00941939
2
Properties=species:S:1:pos:R:3:forces:R:3 energy=-1.658035731616598 pbc="F F F"
Si       0.00000000       0.00000000       0.00000000       0.00000000       0.00000000       0.00526128
Si       0.00000000       0.00000000       6.00000000       0.00000000       0.00000000      -0.00526128
