2
Properties=species:S:1:pos:R:3:forces:R:3 energy=27337.68375092823 pbc="F F F"
Sr       0.00000000       0.00000000       0.00000000       0.00000000       0.00000000 -638796.56250000
Sr       0.00000000       0.00000000       0.10000000       0.00000000       0.00000000  638796.56250000
2
Properties=species:S:1:pos:R:3:forces:R:3 energy=8287.778477490729 pbc="F F F"
Sr       0.00000000       0.00000000       0.00000000       0.00000000       0.00000000 -144308.09375000
Sr       0.00000000       0.00000000       0.15959596       0.00000000       0.00000000  144308.09375000
2
Properties=species:S:1:pos:R:3:forces:R:3 energy=3252.5824325688536 pbc="F F F"
Sr       0.00000000       0.00000000       0.00000000       0.00000000       0.00000000  -46390.96484375
Sr       0.00000000       0.00000000       0.21919192       0.00000000       0.00000000   46390.96484375
2
Properties=species:S:1:pos:R:3:forces:R:3 energy=1479.1050155766661 pbc="F F F"
Sr       0.00000000       0.00000000       0.00000000       0.00000000       0.00000000  -18209.87500000
Sr       0.00000000       0.00000000       0.27878788       0.00000000       0.00000000   18209.87500000
2
Properties=species:S:1:pos:R:3:forces:R:3 energy=742.23093110401 pbc="F F F"
Sr       0.00000000       0.00000000       0.00000000       0.00000000       0.00000000   -8075.27978516
Sr       0.00000000       0.00000000       0.33838384       0.00000000       0.00000000    8075.27978516
2
Properties=species:S:1:pos:R:3:forces:R:3 energy=403.0685470708068 pbc="F F F"
Sr       0.00000000       0.00000000       0.00000000       0.00000000       0.00000000   -3877.43847656
Sr       0.00000000       0.00000000       0.39797980       0.00000000       0.00000000    3877.43847656
2
Properties=species:S:1:pos:R:3:forces:R:3 energy=235.88238985691558 pbc="F F F"
Sr       0.00000000       0.00000000       0.00000000       0.00000000       0.00000000   -1969.42065430
Sr       0.00000000       0.00000000       0.45757576       0.00000000       0.00000000    1969.42065430
2
Properties=species:S:1:pos:R:3:forces:R:3 energy=149.28261264157155 pbc="F F F"
Sr       0.00000000       0.00000000       0.00000000       0.00000000       0.00000000   -1042.92443848
Sr       0.00000000       0.00000000       0.51717172       0.00000000       0.00000000    1042.92443848
2
Properties=species:S:1:pos:R:3:forces:R:3 energy=102.76815495794176 pbc="F F F"
Sr       0.00000000       0.00000000       0.00000000       0.00000000       0.00000000    -568.62139893
Sr       0.00000000       0.00000000       0.57676768       0.00000000       0.00000000     568.62139893
2
Properties=species:S:1:pos:R:3:forces:R:3 energy=77.21658027625308 pbc="F F F"
Sr       0.00000000       0.00000000       0.00000000       0.00000000       0.00000000    -314.13342285
Sr       0.00000000       0.00000000       0.63636364       0.00000000       0.00000000     314.13342285
2
Properties=species:S:1:pos:R:3:forces:R:3 energy=63.13352292337379 pbc="F F F"
Sr       0.00000000       0.00000000       0.00000000       0.00000000       0.00000000    -171.75321960
Sr       0.00000000       0.00000000       0.69595960       0.00000000       0.00000000     171.75321960
2
Properties=species:S:1:pos:R:3:forces:R:3 energy=55.55719472181363 pbc="F F F"
Sr       0.00000000       0.00000000       0.00000000       0.00000000       0.00000000     -89.99665070
Sr       0.00000000       0.00000000       0.75555556       0.00000000       0.00000000      89.99665070
2
Properties=species:S:1:pos:R:3:forces:R:3 energy=51.70593369693921 pbc="F F F"
Sr       0.00000000       0.00000000       0.00000000       0.00000000       0.00000000     -43.88740158
Sr       0.00000000       0.00000000       0.81515152       0.00000000       0.00000000      43.88740158
2
Properties=species:S:1:pos:R:3:forces:R:3 energy=49.880025188106 pbc="F F F"
Sr       0.00000000       0.00000000       0.00000000       0.00000000       0.00000000     -20.34198952
Sr       0.00000000       0.00000000       0.87474747       0.00000000       0.00000000      20.34198952
2
Properties=species:S:1:pos:R:3:forces:R:3 energy=49.015367073147594 pbc="F F F"
Sr       0.00000000       0.00000000       0.00000000       0.00000000       0.00000000     -10.22004414
Sr       0.00000000       0.00000000       0.93434343       0.00000000       0.00000000      10.22004414
2
Properties=species:S:1:pos:R:3:forces:R:3 energy=48.54639613748841 pbc="F F F"
Sr       0.00000000       0.00000000       0.00000000       0.00000000       0.00000000      -6.04565287
Sr       0.00000000       0.00000000       0.99393939       0.00000000       0.00000000       6.04565287
2
Properties=species:S:1:pos:R:3:forces:R:3 energy=48.25594169747462 pbc="F F F"
Sr       0.00000000       0.00000000       0.00000000       0.00000000       0.00000000      -3.97343755
Sr       0.00000000       0.00000000       1.05353535       0.00000000       0.00000000       3.97343755
2
Properties=species:S:1:pos:R:3:forces:R:3 energy=48.03024571029755 pbc="F F F"
Sr       0.00000000       0.00000000       0.00000000       0.00000000       0.00000000      -4.07668257
Sr       0.00000000       0.00000000       1.11313131       0.00000000       0.00000000       4.07668257
2
Properties=species:S:1:pos:R:3:forces:R:3 energy=47.69991275452242 pbc="F F F"
Sr       0.00000000       0.00000000       0.00000000       0.00000000       0.00000000      -7.68324947
Sr       0.00000000       0.00000000       1.17272727       0.00000000       0.00000000       7.68324947
2
Properties=species:S:1:pos:R:3:forces:R:3 energy=47.02977442380315 pbc="F F F"
Sr       0.00000000       0.00000000       0.00000000       0.00000000       0.00000000     -15.50458145
Sr       0.00000000       0.00000000       1.23232323       0.00000000       0.00000000      15.50458145
2
Properties=species:S:1:pos:R:3:forces:R:3 energy=45.779916834730834 pbc="F F F"
Sr       0.00000000       0.00000000       0.00000000       0.00000000       0.00000000     -26.89743996
Sr       0.00000000       0.00000000       1.29191919       0.00000000       0.00000000      26.89743996
2
Properties=species:S:1:pos:R:3:forces:R:3 energy=43.791946178127354 pbc="F F F"
Sr       0.00000000       0.00000000       0.00000000       0.00000000       0.00000000     -39.90481186
Sr       0.00000000       0.00000000       1.35151515       0.00000000       0.00000000      39.90481186
2
Properties=species:S:1:pos:R:3:forces:R:3 energy=41.02921473338959 pbc="F F F"
Sr       0.00000000       0.00000000       0.00000000       0.00000000       0.00000000     -52.65469360
Sr       0.00000000       0.00000000       1.41111111       0.00000000       0.00000000      52.65469360
2
Properties=species:S:1:pos:R:3:forces:R:3 energy=37.545547954963226 pbc="F F F"
Sr       0.00000000       0.00000000       0.00000000       0.00000000       0.00000000     -63.90391922
Sr       0.00000000       0.00000000       1.47070707       0.00000000       0.00000000      63.90391922
2
Properties=species:S:1:pos:R:3:forces:R:3 energy=33.46963096711975 pbc="F F F"
Sr       0.00000000       0.00000000       0.00000000       0.00000000       0.00000000     -72.25839996
Sr       0.00000000       0.00000000       1.53030303       0.00000000       0.00000000      72.25839996
2
Properties=species:S:1:pos:R:3:forces:R:3 energy=29.0238206358159 pbc="F F F"
Sr       0.00000000       0.00000000       0.00000000       0.00000000       0.00000000     -76.05860138
Sr       0.00000000       0.00000000       1.58989899       0.00000000       0.00000000      76.05860138
2
Properties=species:S:1:pos:R:3:forces:R:3 energy=24.515871629708695 pbc="F F F"
Sr       0.00000000       0.00000000       0.00000000       0.00000000       0.00000000     -74.28922272
Sr       0.00000000       0.00000000       1.64949495       0.00000000       0.00000000      74.28922272
2
Properties=species:S:1:pos:R:3:forces:R:3 energy=20.26875161747919 pbc="F F F"
Sr       0.00000000       0.00000000       0.00000000       0.00000000       0.00000000     -67.56543732
Sr       0.00000000       0.00000000       1.70909091       0.00000000       0.00000000      67.56543732
2
Properties=species:S:1:pos:R:3:forces:R:3 energy=16.51737743819456 pbc="F F F"
Sr       0.00000000       0.00000000       0.00000000       0.00000000       0.00000000     -58.08702087
Sr       0.00000000       0.00000000       1.76868687       0.00000000       0.00000000      58.08702087
2
Properties=species:S:1:pos:R:3:forces:R:3 energy=13.354073538821119 pbc="F F F"
Sr       0.00000000       0.00000000       0.00000000       0.00000000       0.00000000     -48.11657333
Sr       0.00000000       0.00000000       1.82828283       0.00000000       0.00000000      48.11657333
2
Properties=species:S:1:pos:R:3:forces:R:3 energy=10.769573294109533 pbc="F F F"
Sr       0.00000000       0.00000000       0.00000000       0.00000000       0.00000000     -38.76248169
Sr       0.00000000       0.00000000       1.88787879       0.00000000       0.00000000      38.76248169
2
Properties=species:S:1:pos:R:3:forces:R:3 energy=8.713256827759892 pbc="F F F"
Sr       0.00000000       0.00000000       0.00000000       0.00000000       0.00000000     -30.44869041
Sr       0.00000000       0.00000000       1.94747475       0.00000000       0.00000000      30.44869041
2
Properties=species:S:1:pos:R:3:forces:R:3 energy=7.112703350962617 pbc="F F F"
Sr       0.00000000       0.00000000       0.00000000       0.00000000       0.00000000     -23.52127266
Sr       0.00000000       0.00000000       2.00707071       0.00000000       0.00000000      23.52127266
2
Properties=species:S:1:pos:R:3:forces:R:3 energy=5.877923944481516 pbc="F F F"
Sr       0.00000000       0.00000000       0.00000000       0.00000000       0.00000000     -18.18239212
Sr       0.00000000       0.00000000       2.06666667       0.00000000       0.00000000      18.18239212
2
Properties=species:S:1:pos:R:3:forces:R:3 energy=4.9160434824608155 pbc="F F F"
Sr       0.00000000       0.00000000       0.00000000       0.00000000       0.00000000     -14.31851673
Sr       0.00000000       0.00000000       2.12626263       0.00000000       0.00000000      14.31851673
2
Properties=species:S:1:pos:R:3:forces:R:3 energy=4.148810919835805 pbc="F F F"
Sr       0.00000000       0.00000000       0.00000000       0.00000000       0.00000000     -11.58473587
Sr       0.00000000       0.00000000       2.18585859       0.00000000       0.00000000      11.58473587
2
Properties=species:S:1:pos:R:3:forces:R:3 energy=3.5201771147591785 pbc="F F F"
Sr       0.00000000       0.00000000       0.00000000       0.00000000       0.00000000      -9.61296272
Sr       0.00000000       0.00000000       2.24545455       0.00000000       0.00000000       9.61296272
2
Properties=species:S:1:pos:R:3:forces:R:3 energy=2.9932557996719846 pbc="F F F"
Sr       0.00000000       0.00000000       0.00000000       0.00000000       0.00000000      -8.13675404
Sr       0.00000000       0.00000000       2.30505051       0.00000000       0.00000000       8.13675404
2
Properties=species:S:1:pos:R:3:forces:R:3 energy=2.5436934560581905 pbc="F F F"
Sr       0.00000000       0.00000000       0.00000000       0.00000000       0.00000000      -6.99715948
Sr       0.00000000       0.00000000       2.36464646       0.00000000       0.00000000       6.99715948
2
Properties=species:S:1:pos:R:3:forces:R:3 energy=2.1545066428823265 pbc="F F F"
Sr       0.00000000       0.00000000       0.00000000       0.00000000       0.00000000      -6.09695530
Sr       0.00000000       0.00000000       2.42424242       0.00000000       0.00000000       6.09695530
2
Properties=species:S:1:pos:R:3:forces:R:3 energy=1.8137227750571896 pbc="F F F"
Sr       0.00000000       0.00000000       0.00000000       0.00000000       0.00000000      -5.36132336
Sr       0.00000000       0.00000000       2.48383838       0.00000000       0.00000000       5.36132336
2
Properties=species:S:1:pos:R:3:forces:R:3 energy=1.5134666733431692 pbc="F F F"
Sr       0.00000000       0.00000000       0.00000000       0.00000000       0.00000000      -4.72775888
Sr       0.00000000       0.00000000       2.54343434       0.00000000       0.00000000       4.72775888
2
Properties=species:S:1:pos:R:3:forces:R:3 energy=1.2490341826235043 pbc="F F F"
Sr       0.00000000       0.00000000       0.00000000       0.00000000       0.00000000      -4.15437365
Sr       0.00000000       0.00000000       2.60303030       0.00000000       0.00000000       4.15437365
2
Properties=species:S:1:pos:R:3:forces:R:3 energy=1.017450259519435 pbc="F F F"
Sr       0.00000000       0.00000000       0.00000000       0.00000000       0.00000000      -3.62439370
Sr       0.00000000       0.00000000       2.66262626       0.00000000       0.00000000       3.62439370
2
Properties=species:S:1:pos:R:3:forces:R:3 energy=0.8161371737109379 pbc="F F F"
Sr       0.00000000       0.00000000       0.00000000       0.00000000       0.00000000      -3.13983965
Sr       0.00000000       0.00000000       2.72222222       0.00000000       0.00000000       3.13983965
2
Properties=species:S:1:pos:R:3:forces:R:3 energy=0.6421057060012388 pbc="F F F"
Sr       0.00000000       0.00000000       0.00000000       0.00000000       0.00000000      -2.71071959
Sr       0.00000000       0.00000000       2.78181818       0.00000000       0.00000000       2.71071959
2
Properties=species:S:1:pos:R:3:forces:R:3 energy=0.491743674788949 pbc="F F F"
Sr       0.00000000       0.00000000       0.00000000       0.00000000       0.00000000      -2.34678340
Sr       0.00000000       0.00000000       2.84141414       0.00000000       0.00000000       2.34678340
2
Properties=species:S:1:pos:R:3:forces:R:3 energy=0.3609859120918766 pbc="F F F"
Sr       0.00000000       0.00000000       0.00000000       0.00000000       0.00000000      -2.05316949
Sr       0.00000000       0.00000000       2.90101010       0.00000000       0.00000000       2.05316949
2
Properties=species:S:1:pos:R:3:forces:R:3 energy=0.24565633085159516 pbc="F F F"
Sr       0.00000000       0.00000000       0.00000000       0.00000000       0.00000000      -1.82805324
Sr       0.00000000       0.00000000       2.96060606       0.00000000       0.00000000       1.82805324
2
Properties=species:S:1:pos:R:3:forces:R:3 energy=0.14192662291872854 pbc="F F F"
Sr       0.00000000       0.00000000       0.00000000       0.00000000       0.00000000      -1.66157579
Sr       0.00000000       0.00000000       3.02020202       0.00000000       0.00000000       1.66157579
2
Properties=species:S:1:pos:R:3:forces:R:3 energy=0.04677388967629559 pbc="F F F"
Sr       0.00000000       0.00000000       0.00000000       0.00000000       0.00000000      -1.53712451
Sr       0.00000000       0.00000000       3.07979798       0.00000000       0.00000000       1.53712451
2
Properties=species:S:1:pos:R:3:forces:R:3 energy=-0.04174011582721446 pbc="F F F"
Sr       0.00000000       0.00000000       0.00000000       0.00000000       0.00000000      -1.43564045
Sr       0.00000000       0.00000000       3.13939394       0.00000000       0.00000000       1.43564045
2
Properties=species:S:1:pos:R:3:forces:R:3 energy=-0.12448194326064312 pbc="F F F"
Sr       0.00000000       0.00000000       0.00000000       0.00000000       0.00000000      -1.34138322
Sr       0.00000000       0.00000000       3.19898990       0.00000000       0.00000000       1.34138322
2
Properties=species:S:1:pos:R:3:forces:R:3 energy=-0.20159043385657743 pbc="F F F"
Sr       0.00000000       0.00000000       0.00000000       0.00000000       0.00000000      -1.24582815
Sr       0.00000000       0.00000000       3.25858586       0.00000000       0.00000000       1.24582815
2
Properties=species:S:1:pos:R:3:forces:R:3 energy=-0.2729211454201154 pbc="F F F"
Sr       0.00000000       0.00000000       0.00000000       0.00000000       0.00000000      -1.14769757
Sr       0.00000000       0.00000000       3.31818182       0.00000000       0.00000000       1.14769757
2
Properties=species:S:1:pos:R:3:forces:R:3 energy=-0.338392093530631 pbc="F F F"
Sr       0.00000000       0.00000000       0.00000000       0.00000000       0.00000000      -1.04984426
Sr       0.00000000       0.00000000       3.37777778       0.00000000       0.00000000       1.04984426
2
Properties=species:S:1:pos:R:3:forces:R:3 energy=-0.39812813721015594 pbc="F F F"
Sr       0.00000000       0.00000000       0.00000000       0.00000000       0.00000000      -0.95568091
Sr       0.00000000       0.00000000       3.43737374       0.00000000       0.00000000       0.95568091
2
Properties=species:S:1:pos:R:3:forces:R:3 energy=-0.45241807320657923 pbc="F F F"
Sr       0.00000000       0.00000000       0.00000000       0.00000000       0.00000000      -0.86729723
Sr       0.00000000       0.00000000       3.49696970       0.00000000       0.00000000       0.86729723
2
Properties=species:S:1:pos:R:3:forces:R:3 energy=-0.5016308512239992 pbc="F F F"
Sr       0.00000000       0.00000000       0.00000000       0.00000000       0.00000000      -0.78531539
Sr       0.00000000       0.00000000       3.55656566       0.00000000       0.00000000       0.78531539
2
Properties=species:S:1:pos:R:3:forces:R:3 energy=-0.5461396024232017 pbc="F F F"
Sr       0.00000000       0.00000000       0.00000000       0.00000000       0.00000000      -0.70926481
Sr       0.00000000       0.00000000       3.61616162       0.00000000       0.00000000       0.70926481
2
Properties=species:S:1:pos:R:3:forces:R:3 energy=-0.5862595037033235 pbc="F F F"
Sr       0.00000000       0.00000000       0.00000000       0.00000000       0.00000000      -0.63772875
Sr       0.00000000       0.00000000       3.67575758       0.00000000       0.00000000       0.63772875
2
Properties=species:S:1:pos:R:3:forces:R:3 energy=-0.6221989753728998 pbc="F F F"
Sr       0.00000000       0.00000000       0.00000000       0.00000000       0.00000000      -0.56857276
Sr       0.00000000       0.00000000       3.73535354       0.00000000       0.00000000       0.56857276
2
Properties=species:S:1:pos:R:3:forces:R:3 energy=-0.6540324584982317 pbc="F F F"
Sr       0.00000000       0.00000000       0.00000000       0.00000000       0.00000000      -0.49960366
Sr       0.00000000       0.00000000       3.79494949       0.00000000       0.00000000       0.49960366
2
Properties=species:S:1:pos:R:3:forces:R:3 energy=-0.681721688345936 pbc="F F F"
Sr       0.00000000       0.00000000       0.00000000       0.00000000       0.00000000      -0.42937559
Sr       0.00000000       0.00000000       3.85454545       0.00000000       0.00000000       0.42937559
2
Properties=species:S:1:pos:R:3:forces:R:3 energy=-0.705178406821098 pbc="F F F"
Sr       0.00000000       0.00000000       0.00000000       0.00000000       0.00000000      -0.35757869
Sr       0.00000000       0.00000000       3.91414141       0.00000000       0.00000000       0.35757869
2
Properties=species:S:1:pos:R:3:forces:R:3 energy=-0.7243233633467294 pbc="F F F"
Sr       0.00000000       0.00000000       0.00000000       0.00000000       0.00000000      -0.28481832
Sr       0.00000000       0.00000000       3.97373737       0.00000000       0.00000000       0.28481832
2
Properties=species:S:1:pos:R:3:forces:R:3 energy=-0.739127954224994 pbc="F F F"
Sr       0.00000000       0.00000000       0.00000000       0.00000000       0.00000000      -0.21213546
Sr       0.00000000       0.00000000       4.03333333       0.00000000       0.00000000       0.21213546
2
Properties=species:S:1:pos:R:3:forces:R:3 energy=-0.7496322335688943 pbc="F F F"
Sr       0.00000000       0.00000000       0.00000000       0.00000000       0.00000000      -0.14068682
Sr       0.00000000       0.00000000       4.09292929       0.00000000       0.00000000       0.14068682
2
Properties=species:S:1:pos:R:3:forces:R:3 energy=-0.7559460186015041 pbc="F F F"
Sr       0.00000000       0.00000000       0.00000000       0.00000000       0.00000000      -0.07172193
Sr       0.00000000       0.00000000       4.15252525       0.00000000       0.00000000       0.07172193
2
Properties=species:S:1:pos:R:3:forces:R:3 energy=-0.7582573496919705 pbc="F F F"
Sr       0.00000000       0.00000000       0.00000000       0.00000000       0.00000000      -0.00659945
Sr       0.00000000       0.00000000       4.21212121       0.00000000       0.00000000       0.00659945
2
Properties=species:S:1:pos:R:3:forces:R:3 energy=-0.756832186929497 pbc="F F F"
Sr       0.00000000       0.00000000       0.00000000       0.00000000       0.00000000       0.05353872
Sr       0.00000000       0.00000000       4.27171717       0.00000000       0.00000000      -0.05353872
2
Properties=species:S:1:pos:R:3:forces:R:3 energy=-0.7519804336352351 pbc="F F F"
Sr       0.00000000       0.00000000       0.00000000       0.00000000       0.00000000       0.10846802
Sr       0.00000000       0.00000000       4.33131313       0.00000000       0.00000000      -0.10846802
2
Properties=species:S:1:pos:R:3:forces:R:3 energy=-0.7439838263358959 pbc="F F F"
Sr       0.00000000       0.00000000       0.00000000       0.00000000       0.00000000       0.15937972
Sr       0.00000000       0.00000000       4.39090909       0.00000000       0.00000000      -0.15937972
2
Properties=species:S:1:pos:R:3:forces:R:3 energy=-0.7330277216416456 pbc="F F F"
Sr       0.00000000       0.00000000       0.00000000       0.00000000       0.00000000       0.20801906
Sr       0.00000000       0.00000000       4.45050505       0.00000000       0.00000000      -0.20801906
2
Properties=species:S:1:pos:R:3:forces:R:3 energy=-0.7192270811181851 pbc="F F F"
Sr       0.00000000       0.00000000       0.00000000       0.00000000       0.00000000       0.25470829
Sr       0.00000000       0.00000000       4.51010101       0.00000000       0.00000000      -0.25470829
2
Properties=species:S:1:pos:R:3:forces:R:3 energy=-0.7027466810159074 pbc="F F F"
Sr       0.00000000       0.00000000       0.00000000       0.00000000       0.00000000       0.29743043
Sr       0.00000000       0.00000000       4.56969697       0.00000000       0.00000000      -0.29743043
2
Properties=species:S:1:pos:R:3:forces:R:3 energy=-0.6839131079960762 pbc="F F F"
Sr       0.00000000       0.00000000       0.00000000       0.00000000       0.00000000       0.33324704
Sr       0.00000000       0.00000000       4.62929293       0.00000000       0.00000000      -0.33324704
2
Properties=species:S:1:pos:R:3:forces:R:3 energy=-0.6632017302931099 pbc="F F F"
Sr       0.00000000       0.00000000       0.00000000       0.00000000       0.00000000       0.36032507
Sr       0.00000000       0.00000000       4.68888889       0.00000000       0.00000000      -0.36032507
2
Properties=species:S:1:pos:R:3:forces:R:3 energy=-0.6411419554622875 pbc="F F F"
Sr       0.00000000       0.00000000       0.00000000       0.00000000       0.00000000       0.37855923
Sr       0.00000000       0.00000000       4.74848485       0.00000000       0.00000000      -0.37855923
2
Properties=species:S:1:pos:R:3:forces:R:3 energy=-0.618235869379836 pbc="F F F"
Sr       0.00000000       0.00000000       0.00000000       0.00000000       0.00000000       0.38898325
Sr       0.00000000       0.00000000       4.80808081       0.00000000       0.00000000      -0.38898325
2
Properties=species:S:1:pos:R:3:forces:R:3 energy=-0.5949070512447329 pbc="F F F"
Sr       0.00000000       0.00000000       0.00000000       0.00000000       0.00000000       0.39290884
Sr       0.00000000       0.00000000       4.86767677       0.00000000       0.00000000      -0.39290884
2
Properties=species:S:1:pos:R:3:forces:R:3 energy=-0.5715116573998705 pbc="F F F"
Sr       0.00000000       0.00000000       0.00000000       0.00000000       0.00000000       0.39136690
Sr       0.00000000       0.00000000       4.92727273       0.00000000       0.00000000      -0.39136690
2
Properties=species:S:1:pos:R:3:forces:R:3 energy=-0.5483549755678594 pbc="F F F"
Sr       0.00000000       0.00000000       0.00000000       0.00000000       0.00000000       0.38499466
Sr       0.00000000       0.00000000       4.98686869       0.00000000       0.00000000      -0.38499466
2
Properties=species:S:1:pos:R:3:forces:R:3 energy=-0.5257088942123076 pbc="F F F"
Sr       0.00000000       0.00000000       0.00000000       0.00000000       0.00000000       0.37447369
Sr       0.00000000       0.00000000       5.04646465       0.00000000       0.00000000      -0.37447369
2
Properties=species:S:1:pos:R:3:forces:R:3 energy=-0.5037700746211664 pbc="F F F"
Sr       0.00000000       0.00000000       0.00000000       0.00000000       0.00000000       0.36164665
Sr       0.00000000       0.00000000       5.10606061       0.00000000       0.00000000      -0.36164665
2
Properties=species:S:1:pos:R:3:forces:R:3 energy=-0.48256524899835107 pbc="F F F"
Sr       0.00000000       0.00000000       0.00000000       0.00000000       0.00000000       0.35061386
Sr       0.00000000       0.00000000       5.16565657       0.00000000       0.00000000      -0.35061386
2
Properties=species:S:1:pos:R:3:forces:R:3 energy=-0.46184144240378966 pbc="F F F"
Sr       0.00000000       0.00000000       0.00000000       0.00000000       0.00000000       0.34629586
Sr       0.00000000       0.00000000       5.22525253       0.00000000       0.00000000      -0.34629586
2
Properties=species:S:1:pos:R:3:forces:R:3 energy=-0.4411428164121376 pbc="F F F"
Sr       0.00000000       0.00000000       0.00000000       0.00000000       0.00000000       0.34912771
Sr       0.00000000       0.00000000       5.28484848       0.00000000       0.00000000      -0.34912771
2
Properties=species:S:1:pos:R:3:forces:R:3 energy=-0.4202535137127202 pbc="F F F"
Sr       0.00000000       0.00000000       0.00000000       0.00000000       0.00000000       0.35048583
Sr       0.00000000       0.00000000       5.34444444       0.00000000       0.00000000      -0.35048583
2
Properties=species:S:1:pos:R:3:forces:R:3 energy=-0.3996509898710414 pbc="F F F"
Sr       0.00000000       0.00000000       0.00000000       0.00000000       0.00000000       0.33797824
Sr       0.00000000       0.00000000       5.40404040       0.00000000       0.00000000      -0.33797824
2
Properties=species:S:1:pos:R:3:forces:R:3 energy=-0.3802394038406657 pbc="F F F"
Sr       0.00000000       0.00000000       0.00000000       0.00000000       0.00000000       0.31255361
Sr       0.00000000       0.00000000       5.46363636       0.00000000       0.00000000      -0.31255361
2
Properties=species:S:1:pos:R:3:forces:R:3 energy=-0.362177279759771 pbc="F F F"
Sr       0.00000000       0.00000000       0.00000000       0.00000000       0.00000000       0.29890177
Sr       0.00000000       0.00000000       5.52323232       0.00000000       0.00000000      -0.29890177
2
Properties=species:S:1:pos:R:3:forces:R:3 energy=-0.3436704746326396 pbc="F F F"
Sr       0.00000000       0.00000000       0.00000000       0.00000000       0.00000000       0.33217320
Sr       0.00000000       0.00000000       5.58282828       0.00000000       0.00000000      -0.33217320
2
Properties=species:S:1:pos:R:3:forces:R:3 energy=-0.32140139994220257 pbc="F F F"
Sr       0.00000000       0.00000000       0.00000000       0.00000000       0.00000000       0.42300722
Sr       0.00000000       0.00000000       5.64242424       0.00000000       0.00000000      -0.42300722
2
Properties=species:S:1:pos:R:3:forces:R:3 energy=-0.2929843441687004 pbc="F F F"
Sr       0.00000000       0.00000000       0.00000000       0.00000000       0.00000000       0.52466547
Sr       0.00000000       0.00000000       5.70202020       0.00000000       0.00000000      -0.52466547
2
Properties=species:S:1:pos:R:3:forces:R:3 energy=-0.2604918505312199 pbc="F F F"
Sr       0.00000000       0.00000000       0.00000000       0.00000000       0.00000000       0.54724997
Sr       0.00000000       0.00000000       5.76161616       0.00000000       0.00000000      -0.54724997
2
Properties=species:S:1:pos:R:3:forces:R:3 energy=-0.2303547114370923 pbc="F F F"
Sr       0.00000000       0.00000000       0.00000000       0.00000000       0.00000000       0.44319451
Sr       0.00000000       0.00000000       5.82121212       0.00000000       0.00000000      -0.44319451
2
Properties=species:S:1:pos:R:3:forces:R:3 energy=-0.20929900495154818 pbc="F F F"
Sr       0.00000000       0.00000000       0.00000000       0.00000000       0.00000000       0.26098698
Sr       0.00000000       0.00000000       5.88080808       0.00000000       0.00000000      -0.26098698
2
Properties=species:S:1:pos:R:3:forces:R:3 energy=-0.19872675955953817 pbc="F F F"
Sr       0.00000000       0.00000000       0.00000000       0.00000000       0.00000000       0.10210948
Sr       0.00000000       0.00000000       5.94040404       0.00000000       0.00000000      -0.10210948
2
Properties=species:S:1:pos:R:3:forces:R:3 energy=-0.19511252475025537 pbc="F F F"
Sr       0.00000000       0.00000000       0.00000000       0.00000000       0.00000000       0.04012058
Sr       0.00000000       0.00000000       6.00000000       0.00000000       0.00000000      -0.04012058
