2
Properties=species:S:1:pos:R:3:forces:R:3 energy=63673.025324336915 pbc="F F F"
Tb       0.00000000       0.00000000       0.00000000       0.00000000       0.00000000 -1582688.87500000
Tb       0.00000000       0.00000000       0.10000000       0.00000000       0.00000000 1582688.87500000
2
Properties=species:S:1:pos:R:3:forces:R:3 energy=17890.671808711915 pbc="F F F"
Tb       0.00000000       0.00000000       0.00000000       0.00000000       0.00000000 -331850.46875000
Tb       0.00000000       0.00000000       0.15959596       0.00000000       0.00000000  331850.46875000
2
Properties=species:S:1:pos:R:3:forces:R:3 energy=6575.048761836916 pbc="F F F"
Tb       0.00000000       0.00000000       0.00000000       0.00000000       0.00000000 -100963.96093750
Tb       0.00000000       0.00000000       0.21919192       0.00000000       0.00000000  100963.96093750
2
Properties=species:S:1:pos:R:3:forces:R:3 energy=2800.060236446291 pbc="F F F"
Tb       0.00000000       0.00000000       0.00000000       0.00000000       0.00000000  -37576.05859375
Tb       0.00000000       0.00000000       0.27878788       0.00000000       0.00000000   37576.05859375
2
Properties=species:S:1:pos:R:3:forces:R:3 energy=1315.351984493166 pbc="F F F"
Tb       0.00000000       0.00000000       0.00000000       0.00000000       0.00000000  -15761.59472656
Tb       0.00000000       0.00000000       0.33838384       0.00000000       0.00000000   15761.59472656
2
Properties=species:S:1:pos:R:3:forces:R:3 energy=669.1424508017598 pbc="F F F"
Tb       0.00000000       0.00000000       0.00000000       0.00000000       0.00000000   -7166.41064453
Tb       0.00000000       0.00000000       0.39797980       0.00000000       0.00000000    7166.41064453
2
Properties=species:S:1:pos:R:3:forces:R:3 energy=366.91951989355664 pbc="F F F"
Tb       0.00000000       0.00000000       0.00000000       0.00000000       0.00000000   -3467.05249023
Tb       0.00000000       0.00000000       0.45757576       0.00000000       0.00000000    3467.05249023
2
Properties=species:S:1:pos:R:3:forces:R:3 energy=217.2030892548367 pbc="F F F"
Tb       0.00000000       0.00000000       0.00000000       0.00000000       0.00000000   -1767.00976562
Tb       0.00000000       0.00000000       0.51717172       0.00000000       0.00000000    1767.00976562
2
Properties=species:S:1:pos:R:3:forces:R:3 energy=139.31162503410957 pbc="F F F"
Tb       0.00000000       0.00000000       0.00000000       0.00000000       0.00000000    -941.94226074
Tb       0.00000000       0.00000000       0.57676768       0.00000000       0.00000000     941.94226074
2
Properties=species:S:1:pos:R:3:forces:R:3 energy=97.0464120594281 pbc="F F F"
Tb       0.00000000       0.00000000       0.00000000       0.00000000       0.00000000    -521.72174072
Tb       0.00000000       0.00000000       0.63636364       0.00000000       0.00000000     521.72174072
2
Properties=species:S:1:pos:R:3:forces:R:3 energy=73.28212988355077 pbc="F F F"
Tb       0.00000000       0.00000000       0.00000000       0.00000000       0.00000000    -298.43630981
Tb       0.00000000       0.00000000       0.69595960       0.00000000       0.00000000     298.43630981
2
Properties=species:S:1:pos:R:3:forces:R:3 energy=59.51251860093592 pbc="F F F"
Tb       0.00000000       0.00000000       0.00000000       0.00000000       0.00000000    -175.45909119
Tb       0.00000000       0.00000000       0.75555556       0.00000000       0.00000000     175.45909119
2
Properties=species:S:1:pos:R:3:forces:R:3 energy=51.33594783531482 pbc="F F F"
Tb       0.00000000       0.00000000       0.00000000       0.00000000       0.00000000    -105.16704559
Tb       0.00000000       0.00000000       0.81515152       0.00000000       0.00000000     105.16704559
2
Properties=species:S:1:pos:R:3:forces:R:3 energy=46.43458083788415 pbc="F F F"
Tb       0.00000000       0.00000000       0.00000000       0.00000000       0.00000000     -62.61531448
Tb       0.00000000       0.00000000       0.87474747       0.00000000       0.00000000      62.61531448
2
Properties=species:S:1:pos:R:3:forces:R:3 energy=43.566577258766365 pbc="F F F"
Tb       0.00000000       0.00000000       0.00000000       0.00000000       0.00000000     -35.75831985
Tb       0.00000000       0.00000000       0.93434343       0.00000000       0.00000000      35.75831985
2
Properties=species:S:1:pos:R:3:forces:R:3 energy=41.94203920460288 pbc="F F F"
Tb       0.00000000       0.00000000       0.00000000       0.00000000       0.00000000     -20.54381561
Tb       0.00000000       0.00000000       0.99393939       0.00000000       0.00000000      20.54381561
2
Properties=species:S:1:pos:R:3:forces:R:3 energy=40.927108961014184 pbc="F F F"
Tb       0.00000000       0.00000000       0.00000000       0.00000000       0.00000000     -14.90304279
Tb       0.00000000       0.00000000       1.05353535       0.00000000       0.00000000      14.90304279
2
Properties=species:S:1:pos:R:3:forces:R:3 energy=40.02807322512178 pbc="F F F"
Tb       0.00000000       0.00000000       0.00000000       0.00000000       0.00000000     -16.21108437
Tb       0.00000000       0.00000000       1.11313131       0.00000000       0.00000000      16.21108437
2
Properties=species:S:1:pos:R:3:forces:R:3 energy=38.90295964585143 pbc="F F F"
Tb       0.00000000       0.00000000       0.00000000       0.00000000       0.00000000     -22.16308022
Tb       0.00000000       0.00000000       1.17272727       0.00000000       0.00000000      22.16308022
2
Properties=species:S:1:pos:R:3:forces:R:3 energy=37.32938288006546 pbc="F F F"
Tb       0.00000000       0.00000000       0.00000000       0.00000000       0.00000000     -30.99389076
Tb       0.00000000       0.00000000       1.23232323       0.00000000       0.00000000      30.99389076
2
Properties=species:S:1:pos:R:3:forces:R:3 energy=35.1816296554029 pbc="F F F"
Tb       0.00000000       0.00000000       0.00000000       0.00000000       0.00000000     -41.18806076
Tb       0.00000000       0.00000000       1.29191919       0.00000000       0.00000000      41.18806076
2
Properties=species:S:1:pos:R:3:forces:R:3 energy=32.422689829677836 pbc="F F F"
Tb       0.00000000       0.00000000       0.00000000       0.00000000       0.00000000     -51.24819565
Tb       0.00000000       0.00000000       1.35151515       0.00000000       0.00000000      51.24819565
2
Properties=species:S:1:pos:R:3:forces:R:3 energy=29.107491330188296 pbc="F F F"
Tb       0.00000000       0.00000000       0.00000000       0.00000000       0.00000000     -59.58703995
Tb       0.00000000       0.00000000       1.41111111       0.00000000       0.00000000      59.58703995
2
Properties=species:S:1:pos:R:3:forces:R:3 energy=25.385534138821782 pbc="F F F"
Tb       0.00000000       0.00000000       0.00000000       0.00000000       0.00000000     -64.65015411
Tb       0.00000000       0.00000000       1.47070707       0.00000000       0.00000000      64.65015411
2
Properties=species:S:1:pos:R:3:forces:R:3 energy=21.49424894212966 pbc="F F F"
Tb       0.00000000       0.00000000       0.00000000       0.00000000       0.00000000     -65.07985687
Tb       0.00000000       0.00000000       1.53030303       0.00000000       0.00000000      65.07985687
2
Properties=species:S:1:pos:R:3:forces:R:3 energy=17.731063959914458 pbc="F F F"
Tb       0.00000000       0.00000000       0.00000000       0.00000000       0.00000000     -60.44045258
Tb       0.00000000       0.00000000       1.58989899       0.00000000       0.00000000      60.44045258
2
Properties=species:S:1:pos:R:3:forces:R:3 energy=14.352985073773832 pbc="F F F"
Tb       0.00000000       0.00000000       0.00000000       0.00000000       0.00000000     -52.71147156
Tb       0.00000000       0.00000000       1.64949495       0.00000000       0.00000000      52.71147156
2
Properties=species:S:1:pos:R:3:forces:R:3 energy=11.439546012728574 pbc="F F F"
Tb       0.00000000       0.00000000       0.00000000       0.00000000       0.00000000     -45.31958389
Tb       0.00000000       0.00000000       1.70909091       0.00000000       0.00000000      45.31958389
2
Properties=species:S:1:pos:R:3:forces:R:3 energy=8.920158842299283 pbc="F F F"
Tb       0.00000000       0.00000000       0.00000000       0.00000000       0.00000000     -39.41830063
Tb       0.00000000       0.00000000       1.76868687       0.00000000       0.00000000      39.41830063
2
Properties=species:S:1:pos:R:3:forces:R:3 energy=6.727648402232974 pbc="F F F"
Tb       0.00000000       0.00000000       0.00000000       0.00000000       0.00000000     -34.23926163
Tb       0.00000000       0.00000000       1.82828283       0.00000000       0.00000000      34.23926163
2
Properties=species:S:1:pos:R:3:forces:R:3 energy=4.828424114331932 pbc="F F F"
Tb       0.00000000       0.00000000       0.00000000       0.00000000       0.00000000     -29.60037994
Tb       0.00000000       0.00000000       1.88787879       0.00000000       0.00000000      29.60037994
2
Properties=species:S:1:pos:R:3:forces:R:3 energy=3.1885886190435846 pbc="F F F"
Tb       0.00000000       0.00000000       0.00000000       0.00000000       0.00000000     -25.49455833
Tb       0.00000000       0.00000000       1.94747475       0.00000000       0.00000000      25.49455833
2
Properties=species:S:1:pos:R:3:forces:R:3 energy=1.7865290994461416 pbc="F F F"
Tb       0.00000000       0.00000000       0.00000000       0.00000000       0.00000000     -21.55390167
Tb       0.00000000       0.00000000       2.00707071       0.00000000       0.00000000      21.55390167
2
Properties=species:S:1:pos:R:3:forces:R:3 energy=0.621616851834215 pbc="F F F"
Tb       0.00000000       0.00000000       0.00000000       0.00000000       0.00000000     -17.52132607
Tb       0.00000000       0.00000000       2.06666667       0.00000000       0.00000000      17.52132607
2
Properties=species:S:1:pos:R:3:forces:R:3 energy=-0.3013924597507794 pbc="F F F"
Tb       0.00000000       0.00000000       0.00000000       0.00000000       0.00000000     -13.47157288
Tb       0.00000000       0.00000000       2.12626263       0.00000000       0.00000000      13.47157288
2
Properties=species:S:1:pos:R:3:forces:R:3 energy=-0.9895242803971496 pbc="F F F"
Tb       0.00000000       0.00000000       0.00000000       0.00000000       0.00000000      -9.69733429
Tb       0.00000000       0.00000000       2.18585859       0.00000000       0.00000000       9.69733429
2
Properties=species:S:1:pos:R:3:forces:R:3 energy=-1.4695245461885673 pbc="F F F"
Tb       0.00000000       0.00000000       0.00000000       0.00000000       0.00000000      -6.53669071
Tb       0.00000000       0.00000000       2.24545455       0.00000000       0.00000000       6.53669071
2
Properties=species:S:1:pos:R:3:forces:R:3 energy=-1.7850835978736543 pbc="F F F"
Tb       0.00000000       0.00000000       0.00000000       0.00000000       0.00000000      -4.19591808
Tb       0.00000000       0.00000000       2.30505051       0.00000000       0.00000000       4.19591808
2
Properties=species:S:1:pos:R:3:forces:R:3 energy=-1.9860650888650642 pbc="F F F"
Tb       0.00000000       0.00000000       0.00000000       0.00000000       0.00000000      -2.67692041
Tb       0.00000000       0.00000000       2.36464646       0.00000000       0.00000000       2.67692041
2
Properties=species:S:1:pos:R:3:forces:R:3 energy=-2.1176600312206206 pbc="F F F"
Tb       0.00000000       0.00000000       0.00000000       0.00000000       0.00000000      -1.83640480
Tb       0.00000000       0.00000000       2.42424242       0.00000000       0.00000000       1.83640480
2
Properties=species:S:1:pos:R:3:forces:R:3 energy=-2.214483044277335 pbc="F F F"
Tb       0.00000000       0.00000000       0.00000000       0.00000000       0.00000000      -1.47604930
Tb       0.00000000       0.00000000       2.48383838       0.00000000       0.00000000       1.47604930
2
Properties=species:S:1:pos:R:3:forces:R:3 energy=-2.299225370874908 pbc="F F F"
Tb       0.00000000       0.00000000       0.00000000       0.00000000       0.00000000      -1.40030253
Tb       0.00000000       0.00000000       2.54343434       0.00000000       0.00000000       1.40030253
2
Properties=species:S:1:pos:R:3:forces:R:3 energy=-2.3837267946160785 pbc="F F F"
Tb       0.00000000       0.00000000       0.00000000       0.00000000       0.00000000      -1.44371152
Tb       0.00000000       0.00000000       2.60303030       0.00000000       0.00000000       1.44371152
2
Properties=species:S:1:pos:R:3:forces:R:3 energy=-2.47121130355415 pbc="F F F"
Tb       0.00000000       0.00000000       0.00000000       0.00000000       0.00000000      -1.48411250
Tb       0.00000000       0.00000000       2.66262626       0.00000000       0.00000000       1.48411250
2
Properties=species:S:1:pos:R:3:forces:R:3 energy=-2.559074893295848 pbc="F F F"
Tb       0.00000000       0.00000000       0.00000000       0.00000000       0.00000000      -1.44821846
Tb       0.00000000       0.00000000       2.72222222       0.00000000       0.00000000       1.44821846
2
Properties=species:S:1:pos:R:3:forces:R:3 energy=-2.6417275924919394 pbc="F F F"
Tb       0.00000000       0.00000000       0.00000000       0.00000000       0.00000000      -1.30773175
Tb       0.00000000       0.00000000       2.78181818       0.00000000       0.00000000       1.30773175
2
Properties=species:S:1:pos:R:3:forces:R:3 energy=-2.7129383325693737 pbc="F F F"
Tb       0.00000000       0.00000000       0.00000000       0.00000000       0.00000000      -1.06678712
Tb       0.00000000       0.00000000       2.84141414       0.00000000       0.00000000       1.06678712
2
Properties=species:S:1:pos:R:3:forces:R:3 energy=-2.767331353768645 pbc="F F F"
Tb       0.00000000       0.00000000       0.00000000       0.00000000       0.00000000      -0.74807549
Tb       0.00000000       0.00000000       2.90101010       0.00000000       0.00000000       0.74807549
2
Properties=species:S:1:pos:R:3:forces:R:3 energy=-2.801186008441756 pbc="F F F"
Tb       0.00000000       0.00000000       0.00000000       0.00000000       0.00000000      -0.38327157
Tb       0.00000000       0.00000000       2.96060606       0.00000000       0.00000000       0.38327157
2
Properties=species:S:1:pos:R:3:forces:R:3 energy=-2.8127983936874625 pbc="F F F"
Tb       0.00000000       0.00000000       0.00000000       0.00000000       0.00000000      -0.00764879
Tb       0.00000000       0.00000000       3.02020202       0.00000000       0.00000000       0.00764879
2
Properties=species:S:1:pos:R:3:forces:R:3 energy=-2.8025728787430735 pbc="F F F"
Tb       0.00000000       0.00000000       0.00000000       0.00000000       0.00000000       0.34424219
Tb       0.00000000       0.00000000       3.07979798       0.00000000       0.00000000      -0.34424219
2
Properties=species:S:1:pos:R:3:forces:R:3 energy=-2.7728138135094307 pbc="F F F"
Tb       0.00000000       0.00000000       0.00000000       0.00000000       0.00000000       0.64389634
Tb       0.00000000       0.00000000       3.13939394       0.00000000       0.00000000      -0.64389634
2
Properties=species:S:1:pos:R:3:forces:R:3 energy=-2.7272158173072714 pbc="F F F"
Tb       0.00000000       0.00000000       0.00000000       0.00000000       0.00000000       0.87401420
Tb       0.00000000       0.00000000       3.19898990       0.00000000       0.00000000      -0.87401420
2
Properties=species:S:1:pos:R:3:forces:R:3 energy=-2.6700989043969905 pbc="F F F"
Tb       0.00000000       0.00000000       0.00000000       0.00000000       0.00000000       1.03100455
Tb       0.00000000       0.00000000       3.25858586       0.00000000       0.00000000      -1.03100455
2
Properties=species:S:1:pos:R:3:forces:R:3 energy=-2.6056199093605668 pbc="F F F"
Tb       0.00000000       0.00000000       0.00000000       0.00000000       0.00000000       1.12322319
Tb       0.00000000       0.00000000       3.31818182       0.00000000       0.00000000      -1.12322319
2
Properties=species:S:1:pos:R:3:forces:R:3 energy=-2.53721079827178 pbc="F F F"
Tb       0.00000000       0.00000000       0.00000000       0.00000000       0.00000000       1.16558778
Tb       0.00000000       0.00000000       3.37777778       0.00000000       0.00000000      -1.16558778
2
Properties=species:S:1:pos:R:3:forces:R:3 energy=-2.4673761499522437 pbc="F F F"
Tb       0.00000000       0.00000000       0.00000000       0.00000000       0.00000000       1.17336667
Tb       0.00000000       0.00000000       3.43737374       0.00000000       0.00000000      -1.17336667
2
Properties=species:S:1:pos:R:3:forces:R:3 energy=-2.3978039469188595 pbc="F F F"
Tb       0.00000000       0.00000000       0.00000000       0.00000000       0.00000000       1.15837884
Tb       0.00000000       0.00000000       3.49696970       0.00000000       0.00000000      -1.15837884
2
Properties=species:S:1:pos:R:3:forces:R:3 energy=-2.3295936025798434 pbc="F F F"
Tb       0.00000000       0.00000000       0.00000000       0.00000000       0.00000000       1.12884891
Tb       0.00000000       0.00000000       3.55656566       0.00000000       0.00000000      -1.12884891
2
Properties=species:S:1:pos:R:3:forces:R:3 energy=-2.263412490535502 pbc="F F F"
Tb       0.00000000       0.00000000       0.00000000       0.00000000       0.00000000       1.09135413
Tb       0.00000000       0.00000000       3.61616162       0.00000000       0.00000000      -1.09135413
2
Properties=species:S:1:pos:R:3:forces:R:3 energy=-2.199542687291026 pbc="F F F"
Tb       0.00000000       0.00000000       0.00000000       0.00000000       0.00000000       1.05238962
Tb       0.00000000       0.00000000       3.67575758       0.00000000       0.00000000      -1.05238962
2
Properties=species:S:1:pos:R:3:forces:R:3 energy=-2.1378786617625245 pbc="F F F"
Tb       0.00000000       0.00000000       0.00000000       0.00000000       0.00000000       1.01832759
Tb       0.00000000       0.00000000       3.73535354       0.00000000       0.00000000      -1.01832759
2
Properties=species:S:1:pos:R:3:forces:R:3 energy=-2.077970399697527 pbc="F F F"
Tb       0.00000000       0.00000000       0.00000000       0.00000000       0.00000000       0.99400926
Tb       0.00000000       0.00000000       3.79494949       0.00000000       0.00000000      -0.99400926
2
Properties=species:S:1:pos:R:3:forces:R:3 energy=-2.0191706513222036 pbc="F F F"
Tb       0.00000000       0.00000000       0.00000000       0.00000000       0.00000000       0.98112488
Tb       0.00000000       0.00000000       3.85454545       0.00000000       0.00000000      -0.98112488
2
Properties=species:S:1:pos:R:3:forces:R:3 energy=-1.960840963007573 pbc="F F F"
Tb       0.00000000       0.00000000       0.00000000       0.00000000       0.00000000       0.97760338
Tb       0.00000000       0.00000000       3.91414141       0.00000000       0.00000000      -0.97760338
2
Properties=species:S:1:pos:R:3:forces:R:3 energy=-1.9025571814134008 pbc="F F F"
Tb       0.00000000       0.00000000       0.00000000       0.00000000       0.00000000       0.97861153
Tb       0.00000000       0.00000000       3.97373737       0.00000000       0.00000000      -0.97861153
2
Properties=species:S:1:pos:R:3:forces:R:3 energy=-1.844220689594591 pbc="F F F"
Tb       0.00000000       0.00000000       0.00000000       0.00000000       0.00000000       0.97850615
Tb       0.00000000       0.00000000       4.03333333       0.00000000       0.00000000      -0.97850615
2
Properties=species:S:1:pos:R:3:forces:R:3 energy=-1.7860434983363949 pbc="F F F"
Tb       0.00000000       0.00000000       0.00000000       0.00000000       0.00000000       0.97263277
Tb       0.00000000       0.00000000       4.09292929       0.00000000       0.00000000      -0.97263277
2
Properties=species:S:1:pos:R:3:forces:R:3 energy=-1.7284614071067244 pbc="F F F"
Tb       0.00000000       0.00000000       0.00000000       0.00000000       0.00000000       0.95821905
Tb       0.00000000       0.00000000       4.15252525       0.00000000       0.00000000      -0.95821905
2
Properties=species:S:1:pos:R:3:forces:R:3 energy=-1.6720193995793835 pbc="F F F"
Tb       0.00000000       0.00000000       0.00000000       0.00000000       0.00000000       0.93441600
Tb       0.00000000       0.00000000       4.21212121       0.00000000       0.00000000      -0.93441600
2
Properties=species:S:1:pos:R:3:forces:R:3 energy=-1.6172593548189558 pbc="F F F"
Tb       0.00000000       0.00000000       0.00000000       0.00000000       0.00000000       0.90192968
Tb       0.00000000       0.00000000       4.27171717       0.00000000       0.00000000      -0.90192968
2
Properties=species:S:1:pos:R:3:forces:R:3 energy=-1.5646533165891847 pbc="F F F"
Tb       0.00000000       0.00000000       0.00000000       0.00000000       0.00000000       0.86256552
Tb       0.00000000       0.00000000       4.33131313       0.00000000       0.00000000      -0.86256552
2
Properties=species:S:1:pos:R:3:forces:R:3 energy=-1.5145364153688707 pbc="F F F"
Tb       0.00000000       0.00000000       0.00000000       0.00000000       0.00000000       0.81881684
Tb       0.00000000       0.00000000       4.39090909       0.00000000       0.00000000      -0.81881684
2
Properties=species:S:1:pos:R:3:forces:R:3 energy=-1.4670865227451761 pbc="F F F"
Tb       0.00000000       0.00000000       0.00000000       0.00000000       0.00000000       0.77354580
Tb       0.00000000       0.00000000       4.45050505       0.00000000       0.00000000      -0.77354580
2
Properties=species:S:1:pos:R:3:forces:R:3 energy=-1.422308603318472 pbc="F F F"
Tb       0.00000000       0.00000000       0.00000000       0.00000000       0.00000000       0.72966003
Tb       0.00000000       0.00000000       4.51010101       0.00000000       0.00000000      -0.72966003
2
Properties=species:S:1:pos:R:3:forces:R:3 energy=-1.3800365345199028 pbc="F F F"
Tb       0.00000000       0.00000000       0.00000000       0.00000000       0.00000000       0.68980616
Tb       0.00000000       0.00000000       4.56969697       0.00000000       0.00000000      -0.68980616
2
Properties=species:S:1:pos:R:3:forces:R:3 energy=-1.339966354499835 pbc="F F F"
Tb       0.00000000       0.00000000       0.00000000       0.00000000       0.00000000       0.65604919
Tb       0.00000000       0.00000000       4.62929293       0.00000000       0.00000000      -0.65604919
2
Properties=species:S:1:pos:R:3:forces:R:3 energy=-1.30169717625675 pbc="F F F"
Tb       0.00000000       0.00000000       0.00000000       0.00000000       0.00000000       0.62950957
Tb       0.00000000       0.00000000       4.68888889       0.00000000       0.00000000      -0.62950957
2
Properties=species:S:1:pos:R:3:forces:R:3 energy=-1.2647916394183352 pbc="F F F"
Tb       0.00000000       0.00000000       0.00000000       0.00000000       0.00000000       0.61007571
Tb       0.00000000       0.00000000       4.74848485       0.00000000       0.00000000      -0.61007571
2
Properties=species:S:1:pos:R:3:forces:R:3 energy=-1.2288692067656912 pbc="F F F"
Tb       0.00000000       0.00000000       0.00000000       0.00000000       0.00000000       0.59622538
Tb       0.00000000       0.00000000       4.80808081       0.00000000       0.00000000      -0.59622538
2
Properties=species:S:1:pos:R:3:forces:R:3 energy=-1.1936725217940072 pbc="F F F"
Tb       0.00000000       0.00000000       0.00000000       0.00000000       0.00000000       0.58505678
Tb       0.00000000       0.00000000       4.86767677       0.00000000       0.00000000      -0.58505678
2
Properties=species:S:1:pos:R:3:forces:R:3 energy=-1.1591581638278217 pbc="F F F"
Tb       0.00000000       0.00000000       0.00000000       0.00000000       0.00000000       0.57265043
Tb       0.00000000       0.00000000       4.92727273       0.00000000       0.00000000      -0.57265043
2
Properties=species:S:1:pos:R:3:forces:R:3 energy=-1.1255223528780556 pbc="F F F"
Tb       0.00000000       0.00000000       0.00000000       0.00000000       0.00000000       0.55498868
Tb       0.00000000       0.00000000       4.98686869       0.00000000       0.00000000      -0.55498868
2
Properties=species:S:1:pos:R:3:forces:R:3 energy=-1.0931591020136882 pbc="F F F"
Tb       0.00000000       0.00000000       0.00000000       0.00000000       0.00000000       0.53006232
Tb       0.00000000       0.00000000       5.04646465       0.00000000       0.00000000      -0.53006232
2
Properties=species:S:1:pos:R:3:forces:R:3 energy=-1.0624317668455145 pbc="F F F"
Tb       0.00000000       0.00000000       0.00000000       0.00000000       0.00000000       0.50109541
Tb       0.00000000       0.00000000       5.10606061       0.00000000       0.00000000      -0.50109541
2
Properties=species:S:1:pos:R:3:forces:R:3 energy=-1.0333007344920533 pbc="F F F"
Tb       0.00000000       0.00000000       0.00000000       0.00000000       0.00000000       0.47863871
Tb       0.00000000       0.00000000       5.16565657       0.00000000       0.00000000      -0.47863871
2
Properties=species:S:1:pos:R:3:forces:R:3 energy=-1.0049983349271898 pbc="F F F"
Tb       0.00000000       0.00000000       0.00000000       0.00000000       0.00000000       0.47486484
Tb       0.00000000       0.00000000       5.22525253       0.00000000       0.00000000      -0.47486484
2
Properties=species:S:1:pos:R:3:forces:R:3 energy=-0.9763484284141735 pbc="F F F"
Tb       0.00000000       0.00000000       0.00000000       0.00000000       0.00000000       0.48807713
Tb       0.00000000       0.00000000       5.28484848       0.00000000       0.00000000      -0.48807713
2
Properties=species:S:1:pos:R:3:forces:R:3 energy=-0.9469416645487228 pbc="F F F"
Tb       0.00000000       0.00000000       0.00000000       0.00000000       0.00000000       0.49526542
Tb       0.00000000       0.00000000       5.34444444       0.00000000       0.00000000      -0.49526542
2
Properties=species:S:1:pos:R:3:forces:R:3 energy=-0.9179175853133912 pbc="F F F"
Tb       0.00000000       0.00000000       0.00000000       0.00000000       0.00000000       0.47330812
Tb       0.00000000       0.00000000       5.40404040       0.00000000       0.00000000      -0.47330812
2
Properties=species:S:1:pos:R:3:forces:R:3 energy=-0.8909585824530295 pbc="F F F"
Tb       0.00000000       0.00000000       0.00000000       0.00000000       0.00000000       0.43059245
Tb       0.00000000       0.00000000       5.46363636       0.00000000       0.00000000      -0.43059245
2
Properties=species:S:1:pos:R:3:forces:R:3 energy=-0.8661644110972294 pbc="F F F"
Tb       0.00000000       0.00000000       0.00000000       0.00000000       0.00000000       0.41002813
Tb       0.00000000       0.00000000       5.52323232       0.00000000       0.00000000      -0.41002813
2
Properties=species:S:1:pos:R:3:forces:R:3 energy=-0.8407273535691032 pbc="F F F"
Tb       0.00000000       0.00000000       0.00000000       0.00000000       0.00000000       0.45661283
Tb       0.00000000       0.00000000       5.58282828       0.00000000       0.00000000      -0.45661283
2
Properties=species:S:1:pos:R:3:forces:R:3 energy=-0.8104263114248295 pbc="F F F"
Tb       0.00000000       0.00000000       0.00000000       0.00000000       0.00000000       0.56657857
Tb       0.00000000       0.00000000       5.64242424       0.00000000       0.00000000      -0.56657857
2
Properties=species:S:1:pos:R:3:forces:R:3 energy=-0.7734037830665775 pbc="F F F"
Tb       0.00000000       0.00000000       0.00000000       0.00000000       0.00000000       0.66375953
Tb       0.00000000       0.00000000       5.70202020       0.00000000       0.00000000      -0.66375953
2
Properties=species:S:1:pos:R:3:forces:R:3 energy=-0.7336106940124165 pbc="F F F"
Tb       0.00000000       0.00000000       0.00000000       0.00000000       0.00000000       0.64951110
Tb       0.00000000       0.00000000       5.76161616       0.00000000       0.00000000      -0.64951110
2
Properties=species:S:1:pos:R:3:forces:R:3 energy=-0.6987990051590405 pbc="F F F"
Tb       0.00000000       0.00000000       0.00000000       0.00000000       0.00000000       0.49827939
Tb       0.00000000       0.00000000       5.82121212       0.00000000       0.00000000      -0.49827939
2
Properties=species:S:1:pos:R:3:forces:R:3 energy=-0.6756118561961267 pbc="F F F"
Tb       0.00000000       0.00000000       0.00000000       0.00000000       0.00000000       0.28045878
Tb       0.00000000       0.00000000       5.88080808       0.00000000       0.00000000      -0.28045878
2
Properties=species:S:1:pos:R:3:forces:R:3 energy=-0.6645411459548106 pbc="F F F"
Tb       0.00000000       0.00000000       0.00000000       0.00000000       0.00000000       0.10149387
Tb       0.00000000       0.00000000       5.94040404       0.00000000       0.00000000      -0.10149387
2
Properties=species:S:1:pos:R:3:forces:R:3 energy=-0.6612280055543273 pbc="F F F"
Tb       0.00000000       0.00000000       0.00000000       0.00000000       0.00000000       0.03298599
Tb       0.00000000       0.00000000       6.00000000       0.00000000       0.00000000      -0.03298599
