2
Properties=species:S:1:pos:R:3:forces:R:3 energy=44983.55330182465 pbc="F F F"
Te       0.00000000       0.00000000       0.00000000       0.00000000       0.00000000 -1088652.87500000
Te       0.00000000       0.00000000       0.10000000       0.00000000       0.00000000 1088652.87500000
2
Properties=species:S:1:pos:R:3:forces:R:3 energy=13088.221270574648 pbc="F F F"
Te       0.00000000       0.00000000       0.00000000       0.00000000       0.00000000 -235503.76562500
Te       0.00000000       0.00000000       0.15959596       0.00000000       0.00000000  235503.76562500
2
Properties=species:S:1:pos:R:3:forces:R:3 energy=4979.633868230898 pbc="F F F"
Te       0.00000000       0.00000000       0.00000000       0.00000000       0.00000000  -73352.81250000
Te       0.00000000       0.00000000       0.21919192       0.00000000       0.00000000   73352.81250000
2
Properties=species:S:1:pos:R:3:forces:R:3 energy=2210.3074522152733 pbc="F F F"
Te       0.00000000       0.00000000       0.00000000       0.00000000       0.00000000  -27944.77148438
Te       0.00000000       0.00000000       0.27878788       0.00000000       0.00000000   27944.77148438
2
Properties=species:S:1:pos:R:3:forces:R:3 energy=1094.6689024137536 pbc="F F F"
Te       0.00000000       0.00000000       0.00000000       0.00000000       0.00000000  -12007.02343750
Te       0.00000000       0.00000000       0.33838384       0.00000000       0.00000000   12007.02343750
2
Properties=species:S:1:pos:R:3:forces:R:3 energy=597.4636411896205 pbc="F F F"
Te       0.00000000       0.00000000       0.00000000       0.00000000       0.00000000   -5581.90283203
Te       0.00000000       0.00000000       0.39797980       0.00000000       0.00000000    5581.90283203
2
Properties=species:S:1:pos:R:3:forces:R:3 energy=360.1783323644012 pbc="F F F"
Te       0.00000000       0.00000000       0.00000000       0.00000000       0.00000000   -2745.78979492
Te       0.00000000       0.00000000       0.45757576       0.00000000       0.00000000    2745.78979492
2
Properties=species:S:1:pos:R:3:forces:R:3 energy=241.17325121298595 pbc="F F F"
Te       0.00000000       0.00000000       0.00000000       0.00000000       0.00000000   -1407.01940918
Te       0.00000000       0.00000000       0.51717172       0.00000000       0.00000000    1407.01940918
2
Properties=species:S:1:pos:R:3:forces:R:3 energy=179.45227347413234 pbc="F F F"
Te       0.00000000       0.00000000       0.00000000       0.00000000       0.00000000    -737.90203857
Te       0.00000000       0.00000000       0.57676768       0.00000000       0.00000000     737.90203857
2
Properties=species:S:1:pos:R:3:forces:R:3 energy=147.03483886411288 pbc="F F F"
Te       0.00000000       0.00000000       0.00000000       0.00000000       0.00000000    -386.23254395
Te       0.00000000       0.00000000       0.63636364       0.00000000       0.00000000     386.23254395
2
Properties=species:S:1:pos:R:3:forces:R:3 energy=130.2441743148064 pbc="F F F"
Te       0.00000000       0.00000000       0.00000000       0.00000000       0.00000000    -196.84577942
Te       0.00000000       0.00000000       0.69595960       0.00000000       0.00000000     196.84577942
2
Properties=species:S:1:pos:R:3:forces:R:3 energy=121.77897217650057 pbc="F F F"
Te       0.00000000       0.00000000       0.00000000       0.00000000       0.00000000     -98.78113556
Te       0.00000000       0.00000000       0.75555556       0.00000000       0.00000000      98.78113556
2
Properties=species:S:1:pos:R:3:forces:R:3 energy=117.38403685686224 pbc="F F F"
Te       0.00000000       0.00000000       0.00000000       0.00000000       0.00000000     -55.89555740
Te       0.00000000       0.00000000       0.81515152       0.00000000       0.00000000      55.89555740
2
Properties=species:S:1:pos:R:3:forces:R:3 energy=114.4255335487024 pbc="F F F"
Te       0.00000000       0.00000000       0.00000000       0.00000000       0.00000000     -48.03775406
Te       0.00000000       0.00000000       0.87474747       0.00000000       0.00000000      48.03775406
2
Properties=species:S:1:pos:R:3:forces:R:3 energy=111.21276558322982 pbc="F F F"
Te       0.00000000       0.00000000       0.00000000       0.00000000       0.00000000     -62.71029663
Te       0.00000000       0.00000000       0.93434343       0.00000000       0.00000000      62.71029663
2
Properties=species:S:1:pos:R:3:forces:R:3 energy=106.68746732826231 pbc="F F F"
Te       0.00000000       0.00000000       0.00000000       0.00000000       0.00000000     -90.68318176
Te       0.00000000       0.00000000       0.99393939       0.00000000       0.00000000      90.68318176
2
Properties=species:S:1:pos:R:3:forces:R:3 energy=100.30253495898474 pbc="F F F"
Te       0.00000000       0.00000000       0.00000000       0.00000000       0.00000000    -123.75407410
Te       0.00000000       0.00000000       1.05353535       0.00000000       0.00000000     123.75407410
2
Properties=species:S:1:pos:R:3:forces:R:3 energy=92.00915570422082 pbc="F F F"
Te       0.00000000       0.00000000       0.00000000       0.00000000       0.00000000    -153.11054993
Te       0.00000000       0.00000000       1.11313131       0.00000000       0.00000000     153.11054993
2
Properties=species:S:1:pos:R:3:forces:R:3 energy=82.32822655795502 pbc="F F F"
Te       0.00000000       0.00000000       0.00000000       0.00000000       0.00000000    -168.81896973
Te       0.00000000       0.00000000       1.17272727       0.00000000       0.00000000     168.81896973
2
Properties=species:S:1:pos:R:3:forces:R:3 energy=72.23145785197836 pbc="F F F"
Te       0.00000000       0.00000000       0.00000000       0.00000000       0.00000000    -167.77798462
Te       0.00000000       0.00000000       1.23232323       0.00000000       0.00000000     167.77798462
2
Properties=species:S:1:pos:R:3:forces:R:3 energy=62.47854667978859 pbc="F F F"
Te       0.00000000       0.00000000       0.00000000       0.00000000       0.00000000    -159.04870605
Te       0.00000000       0.00000000       1.29191919       0.00000000       0.00000000     159.04870605
2
Properties=species:S:1:pos:R:3:forces:R:3 energy=53.30688943367555 pbc="F F F"
Te       0.00000000       0.00000000       0.00000000       0.00000000       0.00000000    -148.44033813
Te       0.00000000       0.00000000       1.35151515       0.00000000       0.00000000     148.44033813
2
Properties=species:S:1:pos:R:3:forces:R:3 energy=44.824835150144104 pbc="F F F"
Te       0.00000000       0.00000000       0.00000000       0.00000000       0.00000000    -135.95289612
Te       0.00000000       0.00000000       1.41111111       0.00000000       0.00000000     135.95289612
2
Properties=species:S:1:pos:R:3:forces:R:3 energy=37.12278093204533 pbc="F F F"
Te       0.00000000       0.00000000       0.00000000       0.00000000       0.00000000    -122.37673950
Te       0.00000000       0.00000000       1.47070707       0.00000000       0.00000000     122.37673950
2
Properties=species:S:1:pos:R:3:forces:R:3 energy=30.259797607291908 pbc="F F F"
Te       0.00000000       0.00000000       0.00000000       0.00000000       0.00000000    -107.77155304
Te       0.00000000       0.00000000       1.53030303       0.00000000       0.00000000     107.77155304
2
Properties=species:S:1:pos:R:3:forces:R:3 energy=24.281125869545157 pbc="F F F"
Te       0.00000000       0.00000000       0.00000000       0.00000000       0.00000000     -93.03126526
Te       0.00000000       0.00000000       1.58989899       0.00000000       0.00000000      93.03126526
2
Properties=species:S:1:pos:R:3:forces:R:3 energy=19.130758656669027 pbc="F F F"
Te       0.00000000       0.00000000       0.00000000       0.00000000       0.00000000     -80.25605011
Te       0.00000000       0.00000000       1.64949495       0.00000000       0.00000000      80.25605011
2
Properties=species:S:1:pos:R:3:forces:R:3 energy=14.665164581163996 pbc="F F F"
Te       0.00000000       0.00000000       0.00000000       0.00000000       0.00000000     -69.93309784
Te       0.00000000       0.00000000       1.70909091       0.00000000       0.00000000      69.93309784
2
Properties=species:S:1:pos:R:3:forces:R:3 energy=10.77228911280842 pbc="F F F"
Te       0.00000000       0.00000000       0.00000000       0.00000000       0.00000000     -60.78313446
Te       0.00000000       0.00000000       1.76868687       0.00000000       0.00000000      60.78313446
2
Properties=species:S:1:pos:R:3:forces:R:3 energy=7.419230139065996 pbc="F F F"
Te       0.00000000       0.00000000       0.00000000       0.00000000       0.00000000     -51.73014450
Te       0.00000000       0.00000000       1.82828283       0.00000000       0.00000000      51.73014450
2
Properties=species:S:1:pos:R:3:forces:R:3 energy=4.604587718229381 pbc="F F F"
Te       0.00000000       0.00000000       0.00000000       0.00000000       0.00000000     -42.79028320
Te       0.00000000       0.00000000       1.88787879       0.00000000       0.00000000      42.79028320
2
Properties=species:S:1:pos:R:3:forces:R:3 energy=2.305147072769308 pbc="F F F"
Te       0.00000000       0.00000000       0.00000000       0.00000000       0.00000000     -34.54023743
Te       0.00000000       0.00000000       1.94747475       0.00000000       0.00000000      34.54023743
2
Properties=species:S:1:pos:R:3:forces:R:3 energy=0.4648322474198703 pbc="F F F"
Te       0.00000000       0.00000000       0.00000000       0.00000000       0.00000000     -27.42723656
Te       0.00000000       0.00000000       2.00707071       0.00000000       0.00000000      27.42723656
2
Properties=species:S:1:pos:R:3:forces:R:3 energy=-0.9886980800457295 pbc="F F F"
Te       0.00000000       0.00000000       0.00000000       0.00000000       0.00000000     -21.55219650
Te       0.00000000       0.00000000       2.06666667       0.00000000       0.00000000      21.55219650
2
Properties=species:S:1:pos:R:3:forces:R:3 energy=-2.1260228837311748 pbc="F F F"
Te       0.00000000       0.00000000       0.00000000       0.00000000       0.00000000     -16.78284073
Te       0.00000000       0.00000000       2.12626263       0.00000000       0.00000000      16.78284073
2
Properties=species:S:1:pos:R:3:forces:R:3 energy=-3.0068226680295003 pbc="F F F"
Te       0.00000000       0.00000000       0.00000000       0.00000000       0.00000000     -12.90744305
Te       0.00000000       0.00000000       2.18585859       0.00000000       0.00000000      12.90744305
2
Properties=species:S:1:pos:R:3:forces:R:3 energy=-3.678260388891134 pbc="F F F"
Te       0.00000000       0.00000000       0.00000000       0.00000000       0.00000000      -9.72713089
Te       0.00000000       0.00000000       2.24545455       0.00000000       0.00000000       9.72713089
2
Properties=species:S:1:pos:R:3:forces:R:3 energy=-4.177086697380961 pbc="F F F"
Te       0.00000000       0.00000000       0.00000000       0.00000000       0.00000000      -7.09536076
Te       0.00000000       0.00000000       2.30505051       0.00000000       0.00000000       7.09536076
2
Properties=species:S:1:pos:R:3:forces:R:3 energy=-4.532971181086327 pbc="F F F"
Te       0.00000000       0.00000000       0.00000000       0.00000000       0.00000000      -4.91803837
Te       0.00000000       0.00000000       2.36464646       0.00000000       0.00000000       4.91803837
2
Properties=species:S:1:pos:R:3:forces:R:3 energy=-4.7711310596642615 pbc="F F F"
Te       0.00000000       0.00000000       0.00000000       0.00000000       0.00000000      -3.13663769
Te       0.00000000       0.00000000       2.42424242       0.00000000       0.00000000       3.13663769
2
Properties=species:S:1:pos:R:3:forces:R:3 energy=-4.913850947228047 pbc="F F F"
Te       0.00000000       0.00000000       0.00000000       0.00000000       0.00000000      -1.70842636
Te       0.00000000       0.00000000       2.48383838       0.00000000       0.00000000       1.70842636
2
Properties=species:S:1:pos:R:3:forces:R:3 energy=-4.98090096250723 pbc="F F F"
Te       0.00000000       0.00000000       0.00000000       0.00000000       0.00000000      -0.58891749
Te       0.00000000       0.00000000       2.54343434       0.00000000       0.00000000       0.58891749
2
Properties=species:S:1:pos:R:3:forces:R:3 energy=-4.989082423413094 pbc="F F F"
Te       0.00000000       0.00000000       0.00000000       0.00000000       0.00000000       0.27736136
Te       0.00000000       0.00000000       2.60303030       0.00000000       0.00000000      -0.27736136
2
Properties=species:S:1:pos:R:3:forces:R:3 energy=-4.951601481081593 pbc="F F F"
Te       0.00000000       0.00000000       0.00000000       0.00000000       0.00000000       0.95426846
Te       0.00000000       0.00000000       2.66262626       0.00000000       0.00000000      -0.95426846
2
Properties=species:S:1:pos:R:3:forces:R:3 energy=-4.877891696772799 pbc="F F F"
Te       0.00000000       0.00000000       0.00000000       0.00000000       0.00000000       1.50231802
Te       0.00000000       0.00000000       2.72222222       0.00000000       0.00000000      -1.50231802
2
Properties=species:S:1:pos:R:3:forces:R:3 energy=-4.77417816089982 pbc="F F F"
Te       0.00000000       0.00000000       0.00000000       0.00000000       0.00000000       1.96705294
Te       0.00000000       0.00000000       2.78181818       0.00000000       0.00000000      -1.96705294
2
Properties=species:S:1:pos:R:3:forces:R:3 energy=-4.6445782486018405 pbc="F F F"
Te       0.00000000       0.00000000       0.00000000       0.00000000       0.00000000       2.37348914
Te       0.00000000       0.00000000       2.84141414       0.00000000       0.00000000      -2.37348914
2
Properties=species:S:1:pos:R:3:forces:R:3 energy=-4.4923380141458376 pbc="F F F"
Te       0.00000000       0.00000000       0.00000000       0.00000000       0.00000000       2.72599149
Te       0.00000000       0.00000000       2.90101010       0.00000000       0.00000000      -2.72599149
2
Properties=species:S:1:pos:R:3:forces:R:3 energy=-4.32098759903912 pbc="F F F"
Te       0.00000000       0.00000000       0.00000000       0.00000000       0.00000000       3.01147270
Te       0.00000000       0.00000000       2.96060606       0.00000000       0.00000000      -3.01147270
2
Properties=species:S:1:pos:R:3:forces:R:3 energy=-4.135164923038705 pbc="F F F"
Te       0.00000000       0.00000000       0.00000000       0.00000000       0.00000000       3.20797682
Te       0.00000000       0.00000000       3.02020202       0.00000000       0.00000000      -3.20797682
2
Properties=species:S:1:pos:R:3:forces:R:3 energy=-3.9407430598611697 pbc="F F F"
Te       0.00000000       0.00000000       0.00000000       0.00000000       0.00000000       3.29833651
Te       0.00000000       0.00000000       3.07979798       0.00000000       0.00000000      -3.29833651
2
Properties=species:S:1:pos:R:3:forces:R:3 energy=-3.744179455832021 pbc="F F F"
Te       0.00000000       0.00000000       0.00000000       0.00000000       0.00000000       3.28110647
Te       0.00000000       0.00000000       3.13939394       0.00000000       0.00000000      -3.28110647
2
Properties=species:S:1:pos:R:3:forces:R:3 energy=-3.551505315542486 pbc="F F F"
Te       0.00000000       0.00000000       0.00000000       0.00000000       0.00000000       3.17135501
Te       0.00000000       0.00000000       3.19898990       0.00000000       0.00000000      -3.17135501
2
Properties=species:S:1:pos:R:3:forces:R:3 energy=-3.3675328498984642 pbc="F F F"
Te       0.00000000       0.00000000       0.00000000       0.00000000       0.00000000       2.99351096
Te       0.00000000       0.00000000       3.25858586       0.00000000       0.00000000      -2.99351096
2
Properties=species:S:1:pos:R:3:forces:R:3 energy=-3.1955331527813127 pbc="F F F"
Te       0.00000000       0.00000000       0.00000000       0.00000000       0.00000000       2.77377987
Te       0.00000000       0.00000000       3.31818182       0.00000000       0.00000000      -2.77377987
2
Properties=species:S:1:pos:R:3:forces:R:3 energy=-3.0372793508109215 pbc="F F F"
Te       0.00000000       0.00000000       0.00000000       0.00000000       0.00000000       2.53585052
Te       0.00000000       0.00000000       3.37777778       0.00000000       0.00000000      -2.53585052
2
Properties=species:S:1:pos:R:3:forces:R:3 energy=-2.8932619458479474 pbc="F F F"
Te       0.00000000       0.00000000       0.00000000       0.00000000       0.00000000       2.29865932
Te       0.00000000       0.00000000       3.43737374       0.00000000       0.00000000      -2.29865932
2
Properties=species:S:1:pos:R:3:forces:R:3 energy=-2.7630242881096256 pbc="F F F"
Te       0.00000000       0.00000000       0.00000000       0.00000000       0.00000000       2.07496405
Te       0.00000000       0.00000000       3.49696970       0.00000000       0.00000000      -2.07496405
2
Properties=species:S:1:pos:R:3:forces:R:3 energy=-2.6455438028059435 pbc="F F F"
Te       0.00000000       0.00000000       0.00000000       0.00000000       0.00000000       1.87114072
Te       0.00000000       0.00000000       3.55656566       0.00000000       0.00000000      -1.87114072
2
Properties=species:S:1:pos:R:3:forces:R:3 energy=-2.5395755774866218 pbc="F F F"
Te       0.00000000       0.00000000       0.00000000       0.00000000       0.00000000       1.68860030
Te       0.00000000       0.00000000       3.61616162       0.00000000       0.00000000      -1.68860030
2
Properties=species:S:1:pos:R:3:forces:R:3 energy=-2.4438813460792783 pbc="F F F"
Te       0.00000000       0.00000000       0.00000000       0.00000000       0.00000000       1.52598047
Te       0.00000000       0.00000000       3.67575758       0.00000000       0.00000000      -1.52598047
2
Properties=species:S:1:pos:R:3:forces:R:3 energy=-2.3573404255567025 pbc="F F F"
Te       0.00000000       0.00000000       0.00000000       0.00000000       0.00000000       1.38100958
Te       0.00000000       0.00000000       3.73535354       0.00000000       0.00000000      -1.38100958
2
Properties=species:S:1:pos:R:3:forces:R:3 energy=-2.278968379942208 pbc="F F F"
Te       0.00000000       0.00000000       0.00000000       0.00000000       0.00000000       1.25148976
Te       0.00000000       0.00000000       3.79494949       0.00000000       0.00000000      -1.25148976
2
Properties=species:S:1:pos:R:3:forces:R:3 energy=-2.207903674372929 pbc="F F F"
Te       0.00000000       0.00000000       0.00000000       0.00000000       0.00000000       1.13554764
Te       0.00000000       0.00000000       3.85454545       0.00000000       0.00000000      -1.13554764
2
Properties=species:S:1:pos:R:3:forces:R:3 energy=-2.143382934252488 pbc="F F F"
Te       0.00000000       0.00000000       0.00000000       0.00000000       0.00000000       1.03159916
Te       0.00000000       0.00000000       3.91414141       0.00000000       0.00000000      -1.03159916
2
Properties=species:S:1:pos:R:3:forces:R:3 energy=-2.0847334100592128 pbc="F F F"
Te       0.00000000       0.00000000       0.00000000       0.00000000       0.00000000       0.93829477
Te       0.00000000       0.00000000       3.97373737       0.00000000       0.00000000      -0.93829477
2
Properties=species:S:1:pos:R:3:forces:R:3 energy=-2.031356040955469 pbc="F F F"
Te       0.00000000       0.00000000       0.00000000       0.00000000       0.00000000       0.85453993
Te       0.00000000       0.00000000       4.03333333       0.00000000       0.00000000      -0.85453993
2
Properties=species:S:1:pos:R:3:forces:R:3 energy=-1.9827053337603053 pbc="F F F"
Te       0.00000000       0.00000000       0.00000000       0.00000000       0.00000000       0.77953315
Te       0.00000000       0.00000000       4.09292929       0.00000000       0.00000000      -0.77953315
2
Properties=species:S:1:pos:R:3:forces:R:3 energy=-1.938277198434226 pbc="F F F"
Te       0.00000000       0.00000000       0.00000000       0.00000000       0.00000000       0.71279490
Te       0.00000000       0.00000000       4.15252525       0.00000000       0.00000000      -0.71279490
2
Properties=species:S:1:pos:R:3:forces:R:3 energy=-1.8975867474728538 pbc="F F F"
Te       0.00000000       0.00000000       0.00000000       0.00000000       0.00000000       0.65409237
Te       0.00000000       0.00000000       4.21212121       0.00000000       0.00000000      -0.65409237
2
Properties=species:S:1:pos:R:3:forces:R:3 energy=-1.8601571472545104 pbc="F F F"
Te       0.00000000       0.00000000       0.00000000       0.00000000       0.00000000       0.60329956
Te       0.00000000       0.00000000       4.27171717       0.00000000       0.00000000      -0.60329956
2
Properties=species:S:1:pos:R:3:forces:R:3 energy=-1.8255243820760245 pbc="F F F"
Te       0.00000000       0.00000000       0.00000000       0.00000000       0.00000000       0.56024176
Te       0.00000000       0.00000000       4.33131313       0.00000000       0.00000000      -0.56024176
2
Properties=species:S:1:pos:R:3:forces:R:3 energy=-1.793234838288719 pbc="F F F"
Te       0.00000000       0.00000000       0.00000000       0.00000000       0.00000000       0.52453542
Te       0.00000000       0.00000000       4.39090909       0.00000000       0.00000000      -0.52453542
2
Properties=species:S:1:pos:R:3:forces:R:3 energy=-1.7628706808698933 pbc="F F F"
Te       0.00000000       0.00000000       0.00000000       0.00000000       0.00000000       0.49550489
Te       0.00000000       0.00000000       4.45050505       0.00000000       0.00000000      -0.49550489
2
Properties=species:S:1:pos:R:3:forces:R:3 energy=-1.7340611066133718 pbc="F F F"
Te       0.00000000       0.00000000       0.00000000       0.00000000       0.00000000       0.47220460
Te       0.00000000       0.00000000       4.51010101       0.00000000       0.00000000      -0.47220460
2
Properties=species:S:1:pos:R:3:forces:R:3 energy=-1.7064966659152805 pbc="F F F"
Te       0.00000000       0.00000000       0.00000000       0.00000000       0.00000000       0.45347515
Te       0.00000000       0.00000000       4.56969697       0.00000000       0.00000000      -0.45347515
2
Properties=species:S:1:pos:R:3:forces:R:3 energy=-1.679943464518613 pbc="F F F"
Te       0.00000000       0.00000000       0.00000000       0.00000000       0.00000000       0.43808144
Te       0.00000000       0.00000000       4.62929293       0.00000000       0.00000000      -0.43808144
2
Properties=species:S:1:pos:R:3:forces:R:3 energy=-1.6542388886498367 pbc="F F F"
Te       0.00000000       0.00000000       0.00000000       0.00000000       0.00000000       0.42484313
Te       0.00000000       0.00000000       4.68888889       0.00000000       0.00000000      -0.42484313
2
Properties=species:S:1:pos:R:3:forces:R:3 energy=-1.6292839197715132 pbc="F F F"
Te       0.00000000       0.00000000       0.00000000       0.00000000       0.00000000       0.41271308
Te       0.00000000       0.00000000       4.74848485       0.00000000       0.00000000      -0.41271308
2
Properties=species:S:1:pos:R:3:forces:R:3 energy=-1.6050422482641666 pbc="F F F"
Te       0.00000000       0.00000000       0.00000000       0.00000000       0.00000000       0.40081438
Te       0.00000000       0.00000000       4.80808081       0.00000000       0.00000000      -0.40081438
2
Properties=species:S:1:pos:R:3:forces:R:3 energy=-1.581519777348035 pbc="F F F"
Te       0.00000000       0.00000000       0.00000000       0.00000000       0.00000000       0.38842648
Te       0.00000000       0.00000000       4.86767677       0.00000000       0.00000000      -0.38842648
2
Properties=species:S:1:pos:R:3:forces:R:3 energy=-1.5587666591444604 pbc="F F F"
Te       0.00000000       0.00000000       0.00000000       0.00000000       0.00000000       0.37490556
Te       0.00000000       0.00000000       4.92727273       0.00000000       0.00000000      -0.37490556
2
Properties=species:S:1:pos:R:3:forces:R:3 energy=-1.5368684926113527 pbc="F F F"
Te       0.00000000       0.00000000       0.00000000       0.00000000       0.00000000       0.35965544
Te       0.00000000       0.00000000       4.98686869       0.00000000       0.00000000      -0.35965544
2
Properties=species:S:1:pos:R:3:forces:R:3 energy=-1.5159429630923693 pbc="F F F"
Te       0.00000000       0.00000000       0.00000000       0.00000000       0.00000000       0.34231639
Te       0.00000000       0.00000000       5.04646465       0.00000000       0.00000000      -0.34231639
2
Properties=species:S:1:pos:R:3:forces:R:3 energy=-1.4961028050737775 pbc="F F F"
Te       0.00000000       0.00000000       0.00000000       0.00000000       0.00000000       0.32332361
Te       0.00000000       0.00000000       5.10606061       0.00000000       0.00000000      -0.32332361
2
Properties=species:S:1:pos:R:3:forces:R:3 energy=-1.477394526609756 pbc="F F F"
Te       0.00000000       0.00000000       0.00000000       0.00000000       0.00000000       0.30476648
Te       0.00000000       0.00000000       5.16565657       0.00000000       0.00000000      -0.30476648
2
Properties=species:S:1:pos:R:3:forces:R:3 energy=-1.459694811698042 pbc="F F F"
Te       0.00000000       0.00000000       0.00000000       0.00000000       0.00000000       0.29020435
Te       0.00000000       0.00000000       5.22525253       0.00000000       0.00000000      -0.29020435
2
Properties=species:S:1:pos:R:3:forces:R:3 energy=-1.4426887097316765 pbc="F F F"
Te       0.00000000       0.00000000       0.00000000       0.00000000       0.00000000       0.28130272
Te       0.00000000       0.00000000       5.28484848       0.00000000       0.00000000      -0.28130272
2
Properties=species:S:1:pos:R:3:forces:R:3 energy=-1.4261407075040171 pbc="F F F"
Te       0.00000000       0.00000000       0.00000000       0.00000000       0.00000000       0.27352291
Te       0.00000000       0.00000000       5.34444444       0.00000000       0.00000000      -0.27352291
2
Properties=species:S:1:pos:R:3:forces:R:3 energy=-1.4102158663634996 pbc="F F F"
Te       0.00000000       0.00000000       0.00000000       0.00000000       0.00000000       0.25945202
Te       0.00000000       0.00000000       5.40404040       0.00000000       0.00000000      -0.25945202
2
Properties=species:S:1:pos:R:3:forces:R:3 energy=-1.3953680720082153 pbc="F F F"
Te       0.00000000       0.00000000       0.00000000       0.00000000       0.00000000       0.23786953
Te       0.00000000       0.00000000       5.46363636       0.00000000       0.00000000      -0.23786953
2
Properties=species:S:1:pos:R:3:forces:R:3 energy=-1.3818818311987884 pbc="F F F"
Te       0.00000000       0.00000000       0.00000000       0.00000000       0.00000000       0.21563767
Te       0.00000000       0.00000000       5.52323232       0.00000000       0.00000000      -0.21563767
2
Properties=species:S:1:pos:R:3:forces:R:3 energy=-1.3695164850900872 pbc="F F F"
Te       0.00000000       0.00000000       0.00000000       0.00000000       0.00000000       0.20085016
Te       0.00000000       0.00000000       5.58282828       0.00000000       0.00000000      -0.20085016
2
Properties=species:S:1:pos:R:3:forces:R:3 energy=-1.3578014850977531 pbc="F F F"
Te       0.00000000       0.00000000       0.00000000       0.00000000       0.00000000       0.19263558
Te       0.00000000       0.00000000       5.64242424       0.00000000       0.00000000      -0.19263558
2
Properties=species:S:1:pos:R:3:forces:R:3 energy=-1.3466750794257005 pbc="F F F"
Te       0.00000000       0.00000000       0.00000000       0.00000000       0.00000000       0.17810951
Te       0.00000000       0.00000000       5.70202020       0.00000000       0.00000000      -0.17810951
2
Properties=species:S:1:pos:R:3:forces:R:3 energy=-1.3369423167404804 pbc="F F F"
Te       0.00000000       0.00000000       0.00000000       0.00000000       0.00000000       0.14579470
Te       0.00000000       0.00000000       5.76161616       0.00000000       0.00000000      -0.14579470
2
Properties=species:S:1:pos:R:3:forces:R:3 energy=-1.329588903635161 pbc="F F F"
Te       0.00000000       0.00000000       0.00000000       0.00000000       0.00000000       0.09946464
Te       0.00000000       0.00000000       5.82121212       0.00000000       0.00000000      -0.09946464
2
Properties=species:S:1:pos:R:3:forces:R:3 energy=-1.3250955563533837 pbc="F F F"
Te       0.00000000       0.00000000       0.00000000       0.00000000       0.00000000       0.05303577
Te       0.00000000       0.00000000       5.88080808       0.00000000       0.00000000      -0.05303577
2
Properties=species:S:1:pos:R:3:forces:R:3 energy=-1.3229972713746077 pbc="F F F"
Te       0.00000000       0.00000000       0.00000000       0.00000000       0.00000000       0.01971466
Te       0.00000000       0.00000000       5.94040404       0.00000000       0.00000000      -0.01971466
2
Properties=species:S:1:pos:R:3:forces:R:3 energy=-1.3223168155323803 pbc="F F F"
Te       0.00000000       0.00000000       0.00000000       0.00000000       0.00000000       0.00726031
Te       0.00000000       0.00000000       6.00000000       0.00000000       0.00000000      -0.00726031
