2
Properties=species:S:1:pos:R:3:forces:R:3 energy=69846.25141222529 pbc="F F F"
Tm       0.00000000       0.00000000       0.00000000       0.00000000       0.00000000 -1748107.87500000
Tm       0.00000000       0.00000000       0.10000000       0.00000000       0.00000000 1748107.87500000
2
Properties=species:S:1:pos:R:3:forces:R:3 energy=19451.517037225294 pbc="F F F"
Tm       0.00000000       0.00000000       0.00000000       0.00000000       0.00000000 -363467.84375000
Tm       0.00000000       0.00000000       0.15959596       0.00000000       0.00000000  363467.84375000
2
Properties=species:S:1:pos:R:3:forces:R:3 energy=7090.504830194042 pbc="F F F"
Tm       0.00000000       0.00000000       0.00000000       0.00000000       0.00000000 -109870.19531250
Tm       0.00000000       0.00000000       0.21919192       0.00000000       0.00000000  109870.19531250
2
Properties=species:S:1:pos:R:3:forces:R:3 energy=2993.6984337096674 pbc="F F F"
Tm       0.00000000       0.00000000       0.00000000       0.00000000       0.00000000  -40622.02734375
Tm       0.00000000       0.00000000       0.27878788       0.00000000       0.00000000   40622.02734375
2
Properties=species:S:1:pos:R:3:forces:R:3 energy=1393.2973106627924 pbc="F F F"
Tm       0.00000000       0.00000000       0.00000000       0.00000000       0.00000000  -16924.34179688
Tm       0.00000000       0.00000000       0.33838384       0.00000000       0.00000000   16924.34179688
2
Properties=species:S:1:pos:R:3:forces:R:3 energy=701.348702264355 pbc="F F F"
Tm       0.00000000       0.00000000       0.00000000       0.00000000       0.00000000   -7647.14599609
Tm       0.00000000       0.00000000       0.39797980       0.00000000       0.00000000    7647.14599609
2
Properties=species:S:1:pos:R:3:forces:R:3 energy=379.60080798991686 pbc="F F F"
Tm       0.00000000       0.00000000       0.00000000       0.00000000       0.00000000   -3681.25268555
Tm       0.00000000       0.00000000       0.45757576       0.00000000       0.00000000    3681.25268555
2
Properties=species:S:1:pos:R:3:forces:R:3 energy=220.87310109340845 pbc="F F F"
Tm       0.00000000       0.00000000       0.00000000       0.00000000       0.00000000   -1870.71875000
Tm       0.00000000       0.00000000       0.51717172       0.00000000       0.00000000    1870.71875000
2
Properties=species:S:1:pos:R:3:forces:R:3 energy=138.4301995074229 pbc="F F F"
Tm       0.00000000       0.00000000       0.00000000       0.00000000       0.00000000    -997.32727051
Tm       0.00000000       0.00000000       0.57676768       0.00000000       0.00000000     997.32727051
2
Properties=species:S:1:pos:R:3:forces:R:3 energy=93.61648647170631 pbc="F F F"
Tm       0.00000000       0.00000000       0.00000000       0.00000000       0.00000000    -554.50573730
Tm       0.00000000       0.00000000       0.63636364       0.00000000       0.00000000     554.50573730
2
Properties=species:S:1:pos:R:3:forces:R:3 energy=68.28990267275806 pbc="F F F"
Tm       0.00000000       0.00000000       0.00000000       0.00000000       0.00000000    -319.10409546
Tm       0.00000000       0.00000000       0.69595960       0.00000000       0.00000000     319.10409546
2
Properties=species:S:1:pos:R:3:forces:R:3 energy=53.54668149116938 pbc="F F F"
Tm       0.00000000       0.00000000       0.00000000       0.00000000       0.00000000    -187.79821777
Tm       0.00000000       0.00000000       0.75555556       0.00000000       0.00000000     187.79821777
2
Properties=species:S:1:pos:R:3:forces:R:3 energy=44.84488415787328 pbc="F F F"
Tm       0.00000000       0.00000000       0.00000000       0.00000000       0.00000000    -110.69297028
Tm       0.00000000       0.00000000       0.81515152       0.00000000       0.00000000     110.69297028
2
Properties=species:S:1:pos:R:3:forces:R:3 energy=39.770619834246716 pbc="F F F"
Tm       0.00000000       0.00000000       0.00000000       0.00000000       0.00000000     -63.31327057
Tm       0.00000000       0.00000000       0.87474747       0.00000000       0.00000000      63.31327057
2
Properties=species:S:1:pos:R:3:forces:R:3 energy=36.94255998821116 pbc="F F F"
Tm       0.00000000       0.00000000       0.00000000       0.00000000       0.00000000     -34.04034805
Tm       0.00000000       0.00000000       0.93434343       0.00000000       0.00000000      34.04034805
2
Properties=species:S:1:pos:R:3:forces:R:3 energy=35.46525784242286 pbc="F F F"
Tm       0.00000000       0.00000000       0.00000000       0.00000000       0.00000000     -17.31234360
Tm       0.00000000       0.00000000       0.99393939       0.00000000       0.00000000      17.31234360
2
Properties=species:S:1:pos:R:3:forces:R:3 energy=34.697829060824205 pbc="F F F"
Tm       0.00000000       0.00000000       0.00000000       0.00000000       0.00000000      -9.73399067
Tm       0.00000000       0.00000000       1.05353535       0.00000000       0.00000000       9.73399067
2
Properties=species:S:1:pos:R:3:forces:R:3 energy=34.17259940071539 pbc="F F F"
Tm       0.00000000       0.00000000       0.00000000       0.00000000       0.00000000      -8.85006428
Tm       0.00000000       0.00000000       1.11313131       0.00000000       0.00000000       8.85006428
2
Properties=species:S:1:pos:R:3:forces:R:3 energy=33.54347288663449 pbc="F F F"
Tm       0.00000000       0.00000000       0.00000000       0.00000000       0.00000000     -12.98863029
Tm       0.00000000       0.00000000       1.17272727       0.00000000       0.00000000      12.98863029
2
Properties=species:S:1:pos:R:3:forces:R:3 energy=32.55091665347116 pbc="F F F"
Tm       0.00000000       0.00000000       0.00000000       0.00000000       0.00000000     -20.83132553
Tm       0.00000000       0.00000000       1.23232323       0.00000000       0.00000000      20.83132553
2
Properties=species:S:1:pos:R:3:forces:R:3 energy=31.012294503595516 pbc="F F F"
Tm       0.00000000       0.00000000       0.00000000       0.00000000       0.00000000     -31.09113693
Tm       0.00000000       0.00000000       1.29191919       0.00000000       0.00000000      31.09113693
2
Properties=species:S:1:pos:R:3:forces:R:3 energy=28.828250815403447 pbc="F F F"
Tm       0.00000000       0.00000000       0.00000000       0.00000000       0.00000000     -42.17425156
Tm       0.00000000       0.00000000       1.35151515       0.00000000       0.00000000      42.17425156
2
Properties=species:S:1:pos:R:3:forces:R:3 energy=26.014322939556862 pbc="F F F"
Tm       0.00000000       0.00000000       0.00000000       0.00000000       0.00000000     -51.78080368
Tm       0.00000000       0.00000000       1.41111111       0.00000000       0.00000000      51.78080368
2
Properties=species:S:1:pos:R:3:forces:R:3 energy=22.741775638534865 pbc="F F F"
Tm       0.00000000       0.00000000       0.00000000       0.00000000       0.00000000     -57.12657547
Tm       0.00000000       0.00000000       1.47070707       0.00000000       0.00000000      57.12657547
2
Properties=species:S:1:pos:R:3:forces:R:3 energy=19.322128674524365 pbc="F F F"
Tm       0.00000000       0.00000000       0.00000000       0.00000000       0.00000000     -56.73199844
Tm       0.00000000       0.00000000       1.53030303       0.00000000       0.00000000      56.73199844
2
Properties=species:S:1:pos:R:3:forces:R:3 energy=16.055780047163047 pbc="F F F"
Tm       0.00000000       0.00000000       0.00000000       0.00000000       0.00000000     -52.55767441
Tm       0.00000000       0.00000000       1.58989899       0.00000000       0.00000000      52.55767441
2
Properties=species:S:1:pos:R:3:forces:R:3 energy=13.07141112938157 pbc="F F F"
Tm       0.00000000       0.00000000       0.00000000       0.00000000       0.00000000     -47.55974579
Tm       0.00000000       0.00000000       1.64949495       0.00000000       0.00000000      47.55974579
2
Properties=species:S:1:pos:R:3:forces:R:3 energy=10.398030951263133 pbc="F F F"
Tm       0.00000000       0.00000000       0.00000000       0.00000000       0.00000000     -42.00767517
Tm       0.00000000       0.00000000       1.70909091       0.00000000       0.00000000      42.00767517
2
Properties=species:S:1:pos:R:3:forces:R:3 energy=8.078904117257727 pbc="F F F"
Tm       0.00000000       0.00000000       0.00000000       0.00000000       0.00000000     -35.78211212
Tm       0.00000000       0.00000000       1.76868687       0.00000000       0.00000000      35.78211212
2
Properties=species:S:1:pos:R:3:forces:R:3 energy=6.125773949486192 pbc="F F F"
Tm       0.00000000       0.00000000       0.00000000       0.00000000       0.00000000     -29.89792633
Tm       0.00000000       0.00000000       1.82828283       0.00000000       0.00000000      29.89792633
2
Properties=species:S:1:pos:R:3:forces:R:3 energy=4.497075308473469 pbc="F F F"
Tm       0.00000000       0.00000000       0.00000000       0.00000000       0.00000000     -24.90556145
Tm       0.00000000       0.00000000       1.88787879       0.00000000       0.00000000      24.90556145
2
Properties=species:S:1:pos:R:3:forces:R:3 energy=3.1425653337209383 pbc="F F F"
Tm       0.00000000       0.00000000       0.00000000       0.00000000       0.00000000     -20.65380859
Tm       0.00000000       0.00000000       1.94747475       0.00000000       0.00000000      20.65380859
2
Properties=species:S:1:pos:R:3:forces:R:3 energy=2.02440259582097 pbc="F F F"
Tm       0.00000000       0.00000000       0.00000000       0.00000000       0.00000000     -16.95601463
Tm       0.00000000       0.00000000       2.00707071       0.00000000       0.00000000      16.95601463
2
Properties=species:S:1:pos:R:3:forces:R:3 energy=1.1116907859038738 pbc="F F F"
Tm       0.00000000       0.00000000       0.00000000       0.00000000       0.00000000     -13.75450039
Tm       0.00000000       0.00000000       2.06666667       0.00000000       0.00000000      13.75450039
2
Properties=species:S:1:pos:R:3:forces:R:3 energy=0.37567834386521853 pbc="F F F"
Tm       0.00000000       0.00000000       0.00000000       0.00000000       0.00000000     -11.02103329
Tm       0.00000000       0.00000000       2.12626263       0.00000000       0.00000000      11.02103329
2
Properties=species:S:1:pos:R:3:forces:R:3 energy=-0.21073024316052988 pbc="F F F"
Tm       0.00000000       0.00000000       0.00000000       0.00000000       0.00000000      -8.73133087
Tm       0.00000000       0.00000000       2.18585859       0.00000000       0.00000000       8.73133087
2
Properties=species:S:1:pos:R:3:forces:R:3 energy=-0.6737479272314086 pbc="F F F"
Tm       0.00000000       0.00000000       0.00000000       0.00000000       0.00000000      -6.88077259
Tm       0.00000000       0.00000000       2.24545455       0.00000000       0.00000000       6.88077259
2
Properties=species:S:1:pos:R:3:forces:R:3 energy=-1.0394949625115404 pbc="F F F"
Tm       0.00000000       0.00000000       0.00000000       0.00000000       0.00000000      -5.46329498
Tm       0.00000000       0.00000000       2.30505051       0.00000000       0.00000000       5.46329498
2
Properties=species:S:1:pos:R:3:forces:R:3 energy=-1.332631260273676 pbc="F F F"
Tm       0.00000000       0.00000000       0.00000000       0.00000000       0.00000000      -4.43160725
Tm       0.00000000       0.00000000       2.36464646       0.00000000       0.00000000       4.43160725
2
Properties=species:S:1:pos:R:3:forces:R:3 energy=-1.573422251933667 pbc="F F F"
Tm       0.00000000       0.00000000       0.00000000       0.00000000       0.00000000      -3.68695545
Tm       0.00000000       0.00000000       2.42424242       0.00000000       0.00000000       3.68695545
2
Properties=species:S:1:pos:R:3:forces:R:3 energy=-1.7753921736981826 pbc="F F F"
Tm       0.00000000       0.00000000       0.00000000       0.00000000       0.00000000      -3.10952973
Tm       0.00000000       0.00000000       2.48383838       0.00000000       0.00000000       3.10952973
2
Properties=species:S:1:pos:R:3:forces:R:3 energy=-1.9454185652692562 pbc="F F F"
Tm       0.00000000       0.00000000       0.00000000       0.00000000       0.00000000      -2.60261154
Tm       0.00000000       0.00000000       2.54343434       0.00000000       0.00000000       2.60261154
2
Properties=species:S:1:pos:R:3:forces:R:3 energy=-2.086019300064316 pbc="F F F"
Tm       0.00000000       0.00000000       0.00000000       0.00000000       0.00000000      -2.11832356
Tm       0.00000000       0.00000000       2.60303030       0.00000000       0.00000000       2.11832356
2
Properties=species:S:1:pos:R:3:forces:R:3 energy=-2.1982757974006844 pbc="F F F"
Tm       0.00000000       0.00000000       0.00000000       0.00000000       0.00000000      -1.65343487
Tm       0.00000000       0.00000000       2.66262626       0.00000000       0.00000000       1.65343487
2
Properties=species:S:1:pos:R:3:forces:R:3 energy=-2.283853338353326 pbc="F F F"
Tm       0.00000000       0.00000000       0.00000000       0.00000000       0.00000000      -1.22665691
Tm       0.00000000       0.00000000       2.72222222       0.00000000       0.00000000       1.22665691
2
Properties=species:S:1:pos:R:3:forces:R:3 energy=-2.3456229351009728 pbc="F F F"
Tm       0.00000000       0.00000000       0.00000000       0.00000000       0.00000000      -0.85686809
Tm       0.00000000       0.00000000       2.78181818       0.00000000       0.00000000       0.85686809
2
Properties=species:S:1:pos:R:3:forces:R:3 energy=-2.387294582130927 pbc="F F F"
Tm       0.00000000       0.00000000       0.00000000       0.00000000       0.00000000      -0.55258536
Tm       0.00000000       0.00000000       2.84141414       0.00000000       0.00000000       0.55258536
2
Properties=species:S:1:pos:R:3:forces:R:3 energy=-2.412735064656517 pbc="F F F"
Tm       0.00000000       0.00000000       0.00000000       0.00000000       0.00000000      -0.31084418
Tm       0.00000000       0.00000000       2.90101010       0.00000000       0.00000000       0.31084418
2
Properties=species:S:1:pos:R:3:forces:R:3 energy=-2.4253706567200113 pbc="F F F"
Tm       0.00000000       0.00000000       0.00000000       0.00000000       0.00000000      -0.12060634
Tm       0.00000000       0.00000000       2.96060606       0.00000000       0.00000000       0.12060634
2
Properties=species:S:1:pos:R:3:forces:R:3 energy=-2.4278491323464655 pbc="F F F"
Tm       0.00000000       0.00000000       0.00000000       0.00000000       0.00000000       0.03233597
Tm       0.00000000       0.00000000       3.02020202       0.00000000       0.00000000      -0.03233597
2
Properties=species:S:1:pos:R:3:forces:R:3 energy=-2.422010163626053 pbc="F F F"
Tm       0.00000000       0.00000000       0.00000000       0.00000000       0.00000000       0.16024467
Tm       0.00000000       0.00000000       3.07979798       0.00000000       0.00000000      -0.16024467
2
Properties=species:S:1:pos:R:3:forces:R:3 energy=-2.409100568341482 pbc="F F F"
Tm       0.00000000       0.00000000       0.00000000       0.00000000       0.00000000       0.27033350
Tm       0.00000000       0.00000000       3.13939394       0.00000000       0.00000000      -0.27033350
2
Properties=species:S:1:pos:R:3:forces:R:3 energy=-2.390090735771972 pbc="F F F"
Tm       0.00000000       0.00000000       0.00000000       0.00000000       0.00000000       0.36515164
Tm       0.00000000       0.00000000       3.19898990       0.00000000       0.00000000      -0.36515164
2
Properties=species:S:1:pos:R:3:forces:R:3 energy=-2.365866798403657 pbc="F F F"
Tm       0.00000000       0.00000000       0.00000000       0.00000000       0.00000000       0.44544715
Tm       0.00000000       0.00000000       3.25858586       0.00000000       0.00000000      -0.44544715
2
Properties=species:S:1:pos:R:3:forces:R:3 energy=-2.337257741955512 pbc="F F F"
Tm       0.00000000       0.00000000       0.00000000       0.00000000       0.00000000       0.51270193
Tm       0.00000000       0.00000000       3.31818182       0.00000000       0.00000000      -0.51270193
2
Properties=species:S:1:pos:R:3:forces:R:3 energy=-2.3049640001828675 pbc="F F F"
Tm       0.00000000       0.00000000       0.00000000       0.00000000       0.00000000       0.56952941
Tm       0.00000000       0.00000000       3.37777778       0.00000000       0.00000000      -0.56952941
2
Properties=species:S:1:pos:R:3:forces:R:3 energy=-2.2695284731808067 pbc="F F F"
Tm       0.00000000       0.00000000       0.00000000       0.00000000       0.00000000       0.61851418
Tm       0.00000000       0.00000000       3.43737374       0.00000000       0.00000000      -0.61851418
2
Properties=species:S:1:pos:R:3:forces:R:3 energy=-2.2313590971217083 pbc="F F F"
Tm       0.00000000       0.00000000       0.00000000       0.00000000       0.00000000       0.66156381
Tm       0.00000000       0.00000000       3.49696970       0.00000000       0.00000000      -0.66156381
2
Properties=species:S:1:pos:R:3:forces:R:3 energy=-2.1907514116568847 pbc="F F F"
Tm       0.00000000       0.00000000       0.00000000       0.00000000       0.00000000       0.70082700
Tm       0.00000000       0.00000000       3.55656566       0.00000000       0.00000000      -0.70082700
2
Properties=species:S:1:pos:R:3:forces:R:3 energy=-2.147829514472342 pbc="F F F"
Tm       0.00000000       0.00000000       0.00000000       0.00000000       0.00000000       0.74000061
Tm       0.00000000       0.00000000       3.61616162       0.00000000       0.00000000      -0.74000061
2
Properties=species:S:1:pos:R:3:forces:R:3 energy=-2.1024539240112934 pbc="F F F"
Tm       0.00000000       0.00000000       0.00000000       0.00000000       0.00000000       0.78396255
Tm       0.00000000       0.00000000       3.67575758       0.00000000       0.00000000      -0.78396255
2
Properties=species:S:1:pos:R:3:forces:R:3 energy=-2.054215481961411 pbc="F F F"
Tm       0.00000000       0.00000000       0.00000000       0.00000000       0.00000000       0.83647078
Tm       0.00000000       0.00000000       3.73535354       0.00000000       0.00000000      -0.83647078
2
Properties=species:S:1:pos:R:3:forces:R:3 energy=-2.002578668163442 pbc="F F F"
Tm       0.00000000       0.00000000       0.00000000       0.00000000       0.00000000       0.89760083
Tm       0.00000000       0.00000000       3.79494949       0.00000000       0.00000000      -0.89760083
2
Properties=species:S:1:pos:R:3:forces:R:3 energy=-1.9471440424460034 pbc="F F F"
Tm       0.00000000       0.00000000       0.00000000       0.00000000       0.00000000       0.96285015
Tm       0.00000000       0.00000000       3.85454545       0.00000000       0.00000000      -0.96285015
2
Properties=species:S:1:pos:R:3:forces:R:3 energy=-1.887885804565029 pbc="F F F"
Tm       0.00000000       0.00000000       0.00000000       0.00000000       0.00000000       1.02454066
Tm       0.00000000       0.00000000       3.91414141       0.00000000       0.00000000      -1.02454066
2
Properties=species:S:1:pos:R:3:forces:R:3 energy=-1.8252593146473022 pbc="F F F"
Tm       0.00000000       0.00000000       0.00000000       0.00000000       0.00000000       1.07459605
Tm       0.00000000       0.00000000       3.97373737       0.00000000       0.00000000      -1.07459605
2
Properties=species:S:1:pos:R:3:forces:R:3 energy=-1.760151578153732 pbc="F F F"
Tm       0.00000000       0.00000000       0.00000000       0.00000000       0.00000000       1.10720026
Tm       0.00000000       0.00000000       4.03333333       0.00000000       0.00000000      -1.10720026
2
Properties=species:S:1:pos:R:3:forces:R:3 energy=-1.693682373106163 pbc="F F F"
Tm       0.00000000       0.00000000       0.00000000       0.00000000       0.00000000       1.12019420
Tm       0.00000000       0.00000000       4.09292929       0.00000000       0.00000000      -1.12019420
2
Properties=species:S:1:pos:R:3:forces:R:3 energy=-1.6269983704766273 pbc="F F F"
Tm       0.00000000       0.00000000       0.00000000       0.00000000       0.00000000       1.11487234
Tm       0.00000000       0.00000000       4.15252525       0.00000000       0.00000000      -1.11487234
2
Properties=species:S:1:pos:R:3:forces:R:3 energy=-1.5610945460003103 pbc="F F F"
Tm       0.00000000       0.00000000       0.00000000       0.00000000       0.00000000       1.09470630
Tm       0.00000000       0.00000000       4.21212121       0.00000000       0.00000000      -1.09470630
2
Properties=species:S:1:pos:R:3:forces:R:3 energy=-1.4967317570392678 pbc="F F F"
Tm       0.00000000       0.00000000       0.00000000       0.00000000       0.00000000       1.06376374
Tm       0.00000000       0.00000000       4.27171717       0.00000000       0.00000000      -1.06376374
2
Properties=species:S:1:pos:R:3:forces:R:3 energy=-1.434446430213101 pbc="F F F"
Tm       0.00000000       0.00000000       0.00000000       0.00000000       0.00000000       1.02554893
Tm       0.00000000       0.00000000       4.33131313       0.00000000       0.00000000      -1.02554893
2
Properties=species:S:1:pos:R:3:forces:R:3 energy=-1.374592015721452 pbc="F F F"
Tm       0.00000000       0.00000000       0.00000000       0.00000000       0.00000000       0.98243546
Tm       0.00000000       0.00000000       4.39090909       0.00000000       0.00000000      -0.98243546
2
Properties=species:S:1:pos:R:3:forces:R:3 energy=-1.3174171569597262 pbc="F F F"
Tm       0.00000000       0.00000000       0.00000000       0.00000000       0.00000000       0.93578005
Tm       0.00000000       0.00000000       4.45050505       0.00000000       0.00000000      -0.93578005
2
Properties=species:S:1:pos:R:3:forces:R:3 energy=-1.263110539722493 pbc="F F F"
Tm       0.00000000       0.00000000       0.00000000       0.00000000       0.00000000       0.88629711
Tm       0.00000000       0.00000000       4.51010101       0.00000000       0.00000000      -0.88629711
2
Properties=species:S:1:pos:R:3:forces:R:3 energy=-1.2118213201735584 pbc="F F F"
Tm       0.00000000       0.00000000       0.00000000       0.00000000       0.00000000       0.83457732
Tm       0.00000000       0.00000000       4.56969697       0.00000000       0.00000000      -0.83457732
2
Properties=species:S:1:pos:R:3:forces:R:3 energy=-1.1636628785226892 pbc="F F F"
Tm       0.00000000       0.00000000       0.00000000       0.00000000       0.00000000       0.78144717
Tm       0.00000000       0.00000000       4.62929293       0.00000000       0.00000000      -0.78144717
2
Properties=species:S:1:pos:R:3:forces:R:3 energy=-1.1186849672334185 pbc="F F F"
Tm       0.00000000       0.00000000       0.00000000       0.00000000       0.00000000       0.72809607
Tm       0.00000000       0.00000000       4.68888889       0.00000000       0.00000000      -0.72809607
2
Properties=species:S:1:pos:R:3:forces:R:3 energy=-1.0768553286178284 pbc="F F F"
Tm       0.00000000       0.00000000       0.00000000       0.00000000       0.00000000       0.67596573
Tm       0.00000000       0.00000000       4.74848485       0.00000000       0.00000000      -0.67596573
2
Properties=species:S:1:pos:R:3:forces:R:3 energy=-1.038064368173468 pbc="F F F"
Tm       0.00000000       0.00000000       0.00000000       0.00000000       0.00000000       0.62637758
Tm       0.00000000       0.00000000       4.80808081       0.00000000       0.00000000      -0.62637758
2
Properties=species:S:1:pos:R:3:forces:R:3 energy=-1.002129861934397 pbc="F F F"
Tm       0.00000000       0.00000000       0.00000000       0.00000000       0.00000000       0.58008063
Tm       0.00000000       0.00000000       4.86767677       0.00000000       0.00000000      -0.58008063
2
Properties=species:S:1:pos:R:3:forces:R:3 energy=-0.9688605065258522 pbc="F F F"
Tm       0.00000000       0.00000000       0.00000000       0.00000000       0.00000000       0.53684103
Tm       0.00000000       0.00000000       4.92727273       0.00000000       0.00000000      -0.53684103
2
Properties=species:S:1:pos:R:3:forces:R:3 energy=-0.9381049231017433 pbc="F F F"
Tm       0.00000000       0.00000000       0.00000000       0.00000000       0.00000000       0.49548873
Tm       0.00000000       0.00000000       4.98686869       0.00000000       0.00000000      -0.49548873
2
Properties=species:S:1:pos:R:3:forces:R:3 energy=-0.9097860250500636 pbc="F F F"
Tm       0.00000000       0.00000000       0.00000000       0.00000000       0.00000000       0.45519188
Tm       0.00000000       0.00000000       5.04646465       0.00000000       0.00000000      -0.45519188
2
Properties=species:S:1:pos:R:3:forces:R:3 energy=-0.8837882816829361 pbc="F F F"
Tm       0.00000000       0.00000000       0.00000000       0.00000000       0.00000000       0.41831997
Tm       0.00000000       0.00000000       5.10606061       0.00000000       0.00000000      -0.41831997
2
Properties=species:S:1:pos:R:3:forces:R:3 energy=-0.859694109651504 pbc="F F F"
Tm       0.00000000       0.00000000       0.00000000       0.00000000       0.00000000       0.39300269
Tm       0.00000000       0.00000000       5.16565657       0.00000000       0.00000000      -0.39300269
2
Properties=species:S:1:pos:R:3:forces:R:3 energy=-0.8365107226979043 pbc="F F F"
Tm       0.00000000       0.00000000       0.00000000       0.00000000       0.00000000       0.38903034
Tm       0.00000000       0.00000000       5.22525253       0.00000000       0.00000000      -0.38903034
2
Properties=species:S:1:pos:R:3:forces:R:3 energy=-0.8129384985245192 pbc="F F F"
Tm       0.00000000       0.00000000       0.00000000       0.00000000       0.00000000       0.40379202
Tm       0.00000000       0.00000000       5.28484848       0.00000000       0.00000000      -0.40379202
2
Properties=species:S:1:pos:R:3:forces:R:3 energy=-0.788465860265653 pbc="F F F"
Tm       0.00000000       0.00000000       0.00000000       0.00000000       0.00000000       0.41423428
Tm       0.00000000       0.00000000       5.34444444       0.00000000       0.00000000      -0.41423428
2
Properties=species:S:1:pos:R:3:forces:R:3 energy=-0.7641416248029831 pbc="F F F"
Tm       0.00000000       0.00000000       0.00000000       0.00000000       0.00000000       0.39676535
Tm       0.00000000       0.00000000       5.40404040       0.00000000       0.00000000      -0.39676535
2
Properties=species:S:1:pos:R:3:forces:R:3 energy=-0.7416067037204046 pbc="F F F"
Tm       0.00000000       0.00000000       0.00000000       0.00000000       0.00000000       0.35856819
Tm       0.00000000       0.00000000       5.46363636       0.00000000       0.00000000      -0.35856819
2
Properties=species:S:1:pos:R:3:forces:R:3 energy=-0.7210179214710408 pbc="F F F"
Tm       0.00000000       0.00000000       0.00000000       0.00000000       0.00000000       0.34018487
Tm       0.00000000       0.00000000       5.52323232       0.00000000       0.00000000      -0.34018487
2
Properties=species:S:1:pos:R:3:forces:R:3 energy=-0.699814280425816 pbc="F F F"
Tm       0.00000000       0.00000000       0.00000000       0.00000000       0.00000000       0.38316011
Tm       0.00000000       0.00000000       5.58282828       0.00000000       0.00000000      -0.38316011
2
Properties=species:S:1:pos:R:3:forces:R:3 energy=-0.6741875217496038 pbc="F F F"
Tm       0.00000000       0.00000000       0.00000000       0.00000000       0.00000000       0.48208877
Tm       0.00000000       0.00000000       5.64242424       0.00000000       0.00000000      -0.48208877
2
Properties=species:S:1:pos:R:3:forces:R:3 energy=-0.6426069531919971 pbc="F F F"
Tm       0.00000000       0.00000000       0.00000000       0.00000000       0.00000000       0.56653768
Tm       0.00000000       0.00000000       5.70202020       0.00000000       0.00000000      -0.56653768
2
Properties=species:S:1:pos:R:3:forces:R:3 energy=-0.6086942490449838 pbc="F F F"
Tm       0.00000000       0.00000000       0.00000000       0.00000000       0.00000000       0.55230743
Tm       0.00000000       0.00000000       5.76161616       0.00000000       0.00000000      -0.55230743
2
Properties=species:S:1:pos:R:3:forces:R:3 energy=-0.5791475542458686 pbc="F F F"
Tm       0.00000000       0.00000000       0.00000000       0.00000000       0.00000000       0.42237633
Tm       0.00000000       0.00000000       5.82121212       0.00000000       0.00000000      -0.42237633
2
Properties=species:S:1:pos:R:3:forces:R:3 energy=-0.5594855155034187 pbc="F F F"
Tm       0.00000000       0.00000000       0.00000000       0.00000000       0.00000000       0.23829071
Tm       0.00000000       0.00000000       5.88080808       0.00000000       0.00000000      -0.23829071
2
Properties=species:S:1:pos:R:3:forces:R:3 energy=-0.5500094858467148 pbc="F F F"
Tm       0.00000000       0.00000000       0.00000000       0.00000000       0.00000000       0.08843768
Tm       0.00000000       0.00000000       5.94040404       0.00000000       0.00000000      -0.08843768
2
Properties=species:S:1:pos:R:3:forces:R:3 energy=-0.5470303676125388 pbc="F F F"
Tm       0.00000000       0.00000000       0.00000000       0.00000000       0.00000000       0.03099215
Tm       0.00000000       0.00000000       6.00000000       0.00000000       0.00000000      -0.03099215
