2
Properties=species:S:1:pos:R:3:forces:R:3 energy=28506.473730449197 pbc="F F F"
Y        0.00000000       0.00000000       0.00000000       0.00000000       0.00000000 -667837.68750000
Y        0.00000000       0.00000000       0.10000000       0.00000000       0.00000000  667837.68750000
2
Properties=species:S:1:pos:R:3:forces:R:3 energy=8619.4502929492 pbc="F F F"
Y        0.00000000       0.00000000       0.00000000       0.00000000       0.00000000 -150332.84375000
Y        0.00000000       0.00000000       0.15959596       0.00000000       0.00000000  150332.84375000
2
Properties=species:S:1:pos:R:3:forces:R:3 energy=3379.7564452929487 pbc="F F F"
Y        0.00000000       0.00000000       0.00000000       0.00000000       0.00000000  -48204.11718750
Y        0.00000000       0.00000000       0.21919192       0.00000000       0.00000000   48204.11718750
2
Properties=species:S:1:pos:R:3:forces:R:3 energy=1538.757055644511 pbc="F F F"
Y        0.00000000       0.00000000       0.00000000       0.00000000       0.00000000  -18878.25390625
Y        0.00000000       0.00000000       0.27878788       0.00000000       0.00000000   18878.25390625
2
Properties=species:S:1:pos:R:3:forces:R:3 energy=775.5787719657761 pbc="F F F"
Y        0.00000000       0.00000000       0.00000000       0.00000000       0.00000000   -8353.22363281
Y        0.00000000       0.00000000       0.33838384       0.00000000       0.00000000    8353.22363281
2
Properties=species:S:1:pos:R:3:forces:R:3 energy=425.0227416923386 pbc="F F F"
Y        0.00000000       0.00000000       0.00000000       0.00000000       0.00000000   -4004.39379883
Y        0.00000000       0.00000000       0.39797980       0.00000000       0.00000000    4004.39379883
2
Properties=species:S:1:pos:R:3:forces:R:3 energy=252.3817962577683 pbc="F F F"
Y        0.00000000       0.00000000       0.00000000       0.00000000       0.00000000   -2034.51135254
Y        0.00000000       0.00000000       0.45757576       0.00000000       0.00000000    2034.51135254
2
Properties=species:S:1:pos:R:3:forces:R:3 energy=162.76550903899425 pbc="F F F"
Y        0.00000000       0.00000000       0.00000000       0.00000000       0.00000000   -1082.97119141
Y        0.00000000       0.00000000       0.51717172       0.00000000       0.00000000    1082.97119141
2
Properties=species:S:1:pos:R:3:forces:R:3 energy=114.17447512878996 pbc="F F F"
Y        0.00000000       0.00000000       0.00000000       0.00000000       0.00000000    -600.06927490
Y        0.00000000       0.00000000       0.57676768       0.00000000       0.00000000     600.06927490
2
Properties=species:S:1:pos:R:3:forces:R:3 energy=86.8023972249093 pbc="F F F"
Y        0.00000000       0.00000000       0.00000000       0.00000000       0.00000000    -344.58834839
Y        0.00000000       0.00000000       0.63636364       0.00000000       0.00000000     344.58834839
2
Properties=species:S:1:pos:R:3:forces:R:3 energy=70.85335400800432 pbc="F F F"
Y        0.00000000       0.00000000       0.00000000       0.00000000       0.00000000    -204.09182739
Y        0.00000000       0.00000000       0.69595960       0.00000000       0.00000000     204.09182739
2
Properties=species:S:1:pos:R:3:forces:R:3 energy=61.302374488781176 pbc="F F F"
Y        0.00000000       0.00000000       0.00000000       0.00000000       0.00000000    -123.53250122
Y        0.00000000       0.00000000       0.75555556       0.00000000       0.00000000     123.53250122
2
Properties=species:S:1:pos:R:3:forces:R:3 energy=55.50091435571642 pbc="F F F"
Y        0.00000000       0.00000000       0.00000000       0.00000000       0.00000000     -75.05342102
Y        0.00000000       0.00000000       0.81515152       0.00000000       0.00000000      75.05342102
2
Properties=species:S:1:pos:R:3:forces:R:3 energy=51.99485681286358 pbc="F F F"
Y        0.00000000       0.00000000       0.00000000       0.00000000       0.00000000     -45.05030060
Y        0.00000000       0.00000000       0.87474747       0.00000000       0.00000000      45.05030060
2
Properties=species:S:1:pos:R:3:forces:R:3 energy=49.877463591643945 pbc="F F F"
Y        0.00000000       0.00000000       0.00000000       0.00000000       0.00000000     -27.92808342
Y        0.00000000       0.00000000       0.93434343       0.00000000       0.00000000      27.92808342
2
Properties=species:S:1:pos:R:3:forces:R:3 energy=48.45573393661434 pbc="F F F"
Y        0.00000000       0.00000000       0.00000000       0.00000000       0.00000000     -21.38414192
Y        0.00000000       0.00000000       0.99393939       0.00000000       0.00000000      21.38414192
2
Properties=species:S:1:pos:R:3:forces:R:3 energy=47.160156453207485 pbc="F F F"
Y        0.00000000       0.00000000       0.00000000       0.00000000       0.00000000     -23.30788612
Y        0.00000000       0.00000000       1.05353535       0.00000000       0.00000000      23.30788612
2
Properties=species:S:1:pos:R:3:forces:R:3 energy=45.55727476487445 pbc="F F F"
Y        0.00000000       0.00000000       0.00000000       0.00000000       0.00000000     -31.29718590
Y        0.00000000       0.00000000       1.11313131       0.00000000       0.00000000      31.29718590
2
Properties=species:S:1:pos:R:3:forces:R:3 energy=43.35462369966817 pbc="F F F"
Y        0.00000000       0.00000000       0.00000000       0.00000000       0.00000000     -43.08234787
Y        0.00000000       0.00000000       1.17272727       0.00000000       0.00000000      43.08234787
2
Properties=species:S:1:pos:R:3:forces:R:3 energy=40.3869506353982 pbc="F F F"
Y        0.00000000       0.00000000       0.00000000       0.00000000       0.00000000     -56.65127563
Y        0.00000000       0.00000000       1.23232323       0.00000000       0.00000000      56.65127563
2
Properties=species:S:1:pos:R:3:forces:R:3 energy=36.603199714546584 pbc="F F F"
Y        0.00000000       0.00000000       0.00000000       0.00000000       0.00000000     -70.15705872
Y        0.00000000       0.00000000       1.29191919       0.00000000       0.00000000      70.15705872
2
Properties=species:S:1:pos:R:3:forces:R:3 energy=32.06697728801936 pbc="F F F"
Y        0.00000000       0.00000000       0.00000000       0.00000000       0.00000000     -81.53189850
Y        0.00000000       0.00000000       1.35151515       0.00000000       0.00000000      81.53189850
2
Properties=species:S:1:pos:R:3:forces:R:3 energy=26.97074064361224 pbc="F F F"
Y        0.00000000       0.00000000       0.00000000       0.00000000       0.00000000     -88.63168335
Y        0.00000000       0.00000000       1.41111111       0.00000000       0.00000000      88.63168335
2
Properties=species:S:1:pos:R:3:forces:R:3 energy=21.618219881010564 pbc="F F F"
Y        0.00000000       0.00000000       0.00000000       0.00000000       0.00000000     -89.94138336
Y        0.00000000       0.00000000       1.47070707       0.00000000       0.00000000      89.94138336
2
Properties=species:S:1:pos:R:3:forces:R:3 energy=16.382324660154367 pbc="F F F"
Y        0.00000000       0.00000000       0.00000000       0.00000000       0.00000000     -84.65958405
Y        0.00000000       0.00000000       1.53030303       0.00000000       0.00000000      84.65958405
2
Properties=species:S:1:pos:R:3:forces:R:3 energy=11.645333575481931 pbc="F F F"
Y        0.00000000       0.00000000       0.00000000       0.00000000       0.00000000     -73.54991913
Y        0.00000000       0.00000000       1.58989899       0.00000000       0.00000000      73.54991913
2
Properties=species:S:1:pos:R:3:forces:R:3 energy=7.668970284749008 pbc="F F F"
Y        0.00000000       0.00000000       0.00000000       0.00000000       0.00000000     -59.75001907
Y        0.00000000       0.00000000       1.64949495       0.00000000       0.00000000      59.75001907
2
Properties=species:S:1:pos:R:3:forces:R:3 energy=4.514036471396119 pbc="F F F"
Y        0.00000000       0.00000000       0.00000000       0.00000000       0.00000000     -46.38349915
Y        0.00000000       0.00000000       1.70909091       0.00000000       0.00000000      46.38349915
2
Properties=species:S:1:pos:R:3:forces:R:3 energy=2.094819905302554 pbc="F F F"
Y        0.00000000       0.00000000       0.00000000       0.00000000       0.00000000     -35.27663040
Y        0.00000000       0.00000000       1.76868687       0.00000000       0.00000000      35.27663040
2
Properties=species:S:1:pos:R:3:forces:R:3 energy=0.25043452052665394 pbc="F F F"
Y        0.00000000       0.00000000       0.00000000       0.00000000       0.00000000     -27.09102249
Y        0.00000000       0.00000000       1.82828283       0.00000000       0.00000000      27.09102249
2
Properties=species:S:1:pos:R:3:forces:R:3 energy=-1.182590896183861 pbc="F F F"
Y        0.00000000       0.00000000       0.00000000       0.00000000       0.00000000     -21.33165169
Y        0.00000000       0.00000000       1.88787879       0.00000000       0.00000000      21.33165169
2
Properties=species:S:1:pos:R:3:forces:R:3 energy=-2.3233187408565636 pbc="F F F"
Y        0.00000000       0.00000000       0.00000000       0.00000000       0.00000000     -17.15250778
Y        0.00000000       0.00000000       1.94747475       0.00000000       0.00000000      17.15250778
2
Properties=species:S:1:pos:R:3:forces:R:3 energy=-3.245755956758288 pbc="F F F"
Y        0.00000000       0.00000000       0.00000000       0.00000000       0.00000000     -13.92391396
Y        0.00000000       0.00000000       2.00707071       0.00000000       0.00000000      13.92391396
2
Properties=species:S:1:pos:R:3:forces:R:3 energy=-3.9939318700917337 pbc="F F F"
Y        0.00000000       0.00000000       0.00000000       0.00000000       0.00000000     -11.25259876
Y        0.00000000       0.00000000       2.06666667       0.00000000       0.00000000      11.25259876
2
Properties=species:S:1:pos:R:3:forces:R:3 energy=-4.59288435172988 pbc="F F F"
Y        0.00000000       0.00000000       0.00000000       0.00000000       0.00000000      -8.88272858
Y        0.00000000       0.00000000       2.12626263       0.00000000       0.00000000       8.88272858
2
Properties=species:S:1:pos:R:3:forces:R:3 energy=-5.0559310936980655 pbc="F F F"
Y        0.00000000       0.00000000       0.00000000       0.00000000       0.00000000      -6.68180370
Y        0.00000000       0.00000000       2.18585859       0.00000000       0.00000000       6.68180370
2
Properties=species:S:1:pos:R:3:forces:R:3 energy=-5.393090556395832 pbc="F F F"
Y        0.00000000       0.00000000       0.00000000       0.00000000       0.00000000      -4.67702627
Y        0.00000000       0.00000000       2.24545455       0.00000000       0.00000000       4.67702627
2
Properties=species:S:1:pos:R:3:forces:R:3 energy=-5.620629836734661 pbc="F F F"
Y        0.00000000       0.00000000       0.00000000       0.00000000       0.00000000      -3.03637552
Y        0.00000000       0.00000000       2.30505051       0.00000000       0.00000000       3.03637552
2
Properties=species:S:1:pos:R:3:forces:R:3 energy=-5.765659040842679 pbc="F F F"
Y        0.00000000       0.00000000       0.00000000       0.00000000       0.00000000      -1.92704594
Y        0.00000000       0.00000000       2.36464646       0.00000000       0.00000000       1.92704594
2
Properties=species:S:1:pos:R:3:forces:R:3 energy=-5.861604827312936 pbc="F F F"
Y        0.00000000       0.00000000       0.00000000       0.00000000       0.00000000      -1.38027489
Y        0.00000000       0.00000000       2.42424242       0.00000000       0.00000000       1.38027489
2
Properties=species:S:1:pos:R:3:forces:R:3 energy=-5.938919627985772 pbc="F F F"
Y        0.00000000       0.00000000       0.00000000       0.00000000       0.00000000      -1.27038646
Y        0.00000000       0.00000000       2.48383838       0.00000000       0.00000000       1.27038646
2
Properties=species:S:1:pos:R:3:forces:R:3 energy=-6.017375877108874 pbc="F F F"
Y        0.00000000       0.00000000       0.00000000       0.00000000       0.00000000      -1.38004589
Y        0.00000000       0.00000000       2.54343434       0.00000000       0.00000000       1.38004589
2
Properties=species:S:1:pos:R:3:forces:R:3 energy=-6.103561530877999 pbc="F F F"
Y        0.00000000       0.00000000       0.00000000       0.00000000       0.00000000      -1.50035000
Y        0.00000000       0.00000000       2.60303030       0.00000000       0.00000000       1.50035000
2
Properties=species:S:1:pos:R:3:forces:R:3 energy=-6.193799277190784 pbc="F F F"
Y        0.00000000       0.00000000       0.00000000       0.00000000       0.00000000      -1.50269234
Y        0.00000000       0.00000000       2.66262626       0.00000000       0.00000000       1.50269234
2
Properties=species:S:1:pos:R:3:forces:R:3 energy=-6.279542286888935 pbc="F F F"
Y        0.00000000       0.00000000       0.00000000       0.00000000       0.00000000      -1.34964418
Y        0.00000000       0.00000000       2.72222222       0.00000000       0.00000000       1.34964418
2
Properties=species:S:1:pos:R:3:forces:R:3 energy=-6.352047288944836 pbc="F F F"
Y        0.00000000       0.00000000       0.00000000       0.00000000       0.00000000      -1.06567550
Y        0.00000000       0.00000000       2.78181818       0.00000000       0.00000000       1.06567550
2
Properties=species:S:1:pos:R:3:forces:R:3 energy=-6.404984840102302 pbc="F F F"
Y        0.00000000       0.00000000       0.00000000       0.00000000       0.00000000      -0.70233375
Y        0.00000000       0.00000000       2.84141414       0.00000000       0.00000000       0.70233375
2
Properties=species:S:1:pos:R:3:forces:R:3 energy=-6.435278328208286 pbc="F F F"
Y        0.00000000       0.00000000       0.00000000       0.00000000       0.00000000      -0.31441817
Y        0.00000000       0.00000000       2.90101010       0.00000000       0.00000000       0.31441817
2
Properties=species:S:1:pos:R:3:forces:R:3 energy=-6.442901779947106 pbc="F F F"
Y        0.00000000       0.00000000       0.00000000       0.00000000       0.00000000       0.05173303
Y        0.00000000       0.00000000       2.96060606       0.00000000       0.00000000      -0.05173303
2
Properties=species:S:1:pos:R:3:forces:R:3 energy=-6.430234290717099 pbc="F F F"
Y        0.00000000       0.00000000       0.00000000       0.00000000       0.00000000       0.36179185
Y        0.00000000       0.00000000       3.02020202       0.00000000       0.00000000      -0.36179185
2
Properties=species:S:1:pos:R:3:forces:R:3 energy=-6.401344958003538 pbc="F F F"
Y        0.00000000       0.00000000       0.00000000       0.00000000       0.00000000       0.59340352
Y        0.00000000       0.00000000       3.07979798       0.00000000       0.00000000      -0.59340352
2
Properties=species:S:1:pos:R:3:forces:R:3 energy=-6.361280791160246 pbc="F F F"
Y        0.00000000       0.00000000       0.00000000       0.00000000       0.00000000       0.73610502
Y        0.00000000       0.00000000       3.13939394       0.00000000       0.00000000      -0.73610502
2
Properties=species:S:1:pos:R:3:forces:R:3 energy=-6.3153398759090225 pbc="F F F"
Y        0.00000000       0.00000000       0.00000000       0.00000000       0.00000000       0.79199868
Y        0.00000000       0.00000000       3.19898990       0.00000000       0.00000000      -0.79199868
2
Properties=species:S:1:pos:R:3:forces:R:3 energy=-6.268325041823687 pbc="F F F"
Y        0.00000000       0.00000000       0.00000000       0.00000000       0.00000000       0.77550346
Y        0.00000000       0.00000000       3.25858586       0.00000000       0.00000000      -0.77550346
2
Properties=species:S:1:pos:R:3:forces:R:3 energy=-6.223865380903174 pbc="F F F"
Y        0.00000000       0.00000000       0.00000000       0.00000000       0.00000000       0.71094871
Y        0.00000000       0.00000000       3.31818182       0.00000000       0.00000000      -0.71094871
2
Properties=species:S:1:pos:R:3:forces:R:3 energy=-6.183945007846581 pbc="F F F"
Y        0.00000000       0.00000000       0.00000000       0.00000000       0.00000000       0.62834656
Y        0.00000000       0.00000000       3.37777778       0.00000000       0.00000000      -0.62834656
2
Properties=species:S:1:pos:R:3:forces:R:3 energy=-6.148714152326745 pbc="F F F"
Y        0.00000000       0.00000000       0.00000000       0.00000000       0.00000000       0.55850375
Y        0.00000000       0.00000000       3.43737374       0.00000000       0.00000000      -0.55850375
2
Properties=species:S:1:pos:R:3:forces:R:3 energy=-6.116604327774622 pbc="F F F"
Y        0.00000000       0.00000000       0.00000000       0.00000000       0.00000000       0.52703524
Y        0.00000000       0.00000000       3.49696970       0.00000000       0.00000000      -0.52703524
2
Properties=species:S:1:pos:R:3:forces:R:3 energy=-6.0848818600952335 pbc="F F F"
Y        0.00000000       0.00000000       0.00000000       0.00000000       0.00000000       0.54594225
Y        0.00000000       0.00000000       3.55656566       0.00000000       0.00000000      -0.54594225
2
Properties=species:S:1:pos:R:3:forces:R:3 energy=-6.050665710823495 pbc="F F F"
Y        0.00000000       0.00000000       0.00000000       0.00000000       0.00000000       0.60804796
Y        0.00000000       0.00000000       3.61616162       0.00000000       0.00000000      -0.60804796
2
Properties=species:S:1:pos:R:3:forces:R:3 energy=-6.011937429440274 pbc="F F F"
Y        0.00000000       0.00000000       0.00000000       0.00000000       0.00000000       0.69389451
Y        0.00000000       0.00000000       3.67575758       0.00000000       0.00000000      -0.69389451
2
Properties=species:S:1:pos:R:3:forces:R:3 energy=-5.96785571934856 pbc="F F F"
Y        0.00000000       0.00000000       0.00000000       0.00000000       0.00000000       0.78518426
Y        0.00000000       0.00000000       3.73535354       0.00000000       0.00000000      -0.78518426
2
Properties=species:S:1:pos:R:3:forces:R:3 energy=-5.91847310233936 pbc="F F F"
Y        0.00000000       0.00000000       0.00000000       0.00000000       0.00000000       0.87038350
Y        0.00000000       0.00000000       3.79494949       0.00000000       0.00000000      -0.87038350
2
Properties=species:S:1:pos:R:3:forces:R:3 energy=-5.864364458175114 pbc="F F F"
Y        0.00000000       0.00000000       0.00000000       0.00000000       0.00000000       0.94302911
Y        0.00000000       0.00000000       3.85454545       0.00000000       0.00000000      -0.94302911
2
Properties=species:S:1:pos:R:3:forces:R:3 energy=-5.806388932318466 pbc="F F F"
Y        0.00000000       0.00000000       0.00000000       0.00000000       0.00000000       0.99984312
Y        0.00000000       0.00000000       3.91414141       0.00000000       0.00000000      -0.99984312
2
Properties=species:S:1:pos:R:3:forces:R:3 energy=-5.745519819500407 pbc="F F F"
Y        0.00000000       0.00000000       0.00000000       0.00000000       0.00000000       1.04018033
Y        0.00000000       0.00000000       3.97373737       0.00000000       0.00000000      -1.04018033
2
Properties=species:S:1:pos:R:3:forces:R:3 energy=-5.682705573793129 pbc="F F F"
Y        0.00000000       0.00000000       0.00000000       0.00000000       0.00000000       1.06556761
Y        0.00000000       0.00000000       4.03333333       0.00000000       0.00000000      -1.06556761
2
Properties=species:S:1:pos:R:3:forces:R:3 energy=-5.618755886132105 pbc="F F F"
Y        0.00000000       0.00000000       0.00000000       0.00000000       0.00000000       1.07872272
Y        0.00000000       0.00000000       4.09292929       0.00000000       0.00000000      -1.07872272
2
Properties=species:S:1:pos:R:3:forces:R:3 energy=-5.5543188536036645 pbc="F F F"
Y        0.00000000       0.00000000       0.00000000       0.00000000       0.00000000       1.08233047
Y        0.00000000       0.00000000       4.15252525       0.00000000       0.00000000      -1.08233047
2
Properties=species:S:1:pos:R:3:forces:R:3 energy=-5.489906629330102 pbc="F F F"
Y        0.00000000       0.00000000       0.00000000       0.00000000       0.00000000       1.07806814
Y        0.00000000       0.00000000       4.21212121       0.00000000       0.00000000      -1.07806814
2
Properties=species:S:1:pos:R:3:forces:R:3 energy=-5.42597270611964 pbc="F F F"
Y        0.00000000       0.00000000       0.00000000       0.00000000       0.00000000       1.06616449
Y        0.00000000       0.00000000       4.27171717       0.00000000       0.00000000      -1.06616449
2
Properties=species:S:1:pos:R:3:forces:R:3 energy=-5.363000649199685 pbc="F F F"
Y        0.00000000       0.00000000       0.00000000       0.00000000       0.00000000       1.04560721
Y        0.00000000       0.00000000       4.33131313       0.00000000       0.00000000      -1.04560721
2
Properties=species:S:1:pos:R:3:forces:R:3 energy=-5.301548288353247 pbc="F F F"
Y        0.00000000       0.00000000       0.00000000       0.00000000       0.00000000       1.01484191
Y        0.00000000       0.00000000       4.39090909       0.00000000       0.00000000      -1.01484191
2
Properties=species:S:1:pos:R:3:forces:R:3 energy=-5.242265582641345 pbc="F F F"
Y        0.00000000       0.00000000       0.00000000       0.00000000       0.00000000       0.97268921
Y        0.00000000       0.00000000       4.45050505       0.00000000       0.00000000      -0.97268921
2
Properties=species:S:1:pos:R:3:forces:R:3 energy=-5.185838047843569 pbc="F F F"
Y        0.00000000       0.00000000       0.00000000       0.00000000       0.00000000       0.91921079
Y        0.00000000       0.00000000       4.51010101       0.00000000       0.00000000      -0.91921079
2
Properties=species:S:1:pos:R:3:forces:R:3 energy=-5.132892623132947 pbc="F F F"
Y        0.00000000       0.00000000       0.00000000       0.00000000       0.00000000       0.85623199
Y        0.00000000       0.00000000       4.56969697       0.00000000       0.00000000      -0.85623199
2
Properties=species:S:1:pos:R:3:forces:R:3 energy=-5.083897387889068 pbc="F F F"
Y        0.00000000       0.00000000       0.00000000       0.00000000       0.00000000       0.78745162
Y        0.00000000       0.00000000       4.62929293       0.00000000       0.00000000      -0.78745162
2
Properties=species:S:1:pos:R:3:forces:R:3 energy=-5.0390498170763065 pbc="F F F"
Y        0.00000000       0.00000000       0.00000000       0.00000000       0.00000000       0.71800947
Y        0.00000000       0.00000000       4.68888889       0.00000000       0.00000000      -0.71800947
2
Properties=species:S:1:pos:R:3:forces:R:3 energy=-4.9982168138034915 pbc="F F F"
Y        0.00000000       0.00000000       0.00000000       0.00000000       0.00000000       0.65356594
Y        0.00000000       0.00000000       4.74848485       0.00000000       0.00000000      -0.65356594
2
Properties=species:S:1:pos:R:3:forces:R:3 energy=-4.960951227562041 pbc="F F F"
Y        0.00000000       0.00000000       0.00000000       0.00000000       0.00000000       0.59905440
Y        0.00000000       0.00000000       4.80808081       0.00000000       0.00000000      -0.59905440
2
Properties=species:S:1:pos:R:3:forces:R:3 energy=-4.926560174988122 pbc="F F F"
Y        0.00000000       0.00000000       0.00000000       0.00000000       0.00000000       0.55723357
Y        0.00000000       0.00000000       4.86767677       0.00000000       0.00000000      -0.55723357
2
Properties=species:S:1:pos:R:3:forces:R:3 energy=-4.8942875797952174 pbc="F F F"
Y        0.00000000       0.00000000       0.00000000       0.00000000       0.00000000       0.52759498
Y        0.00000000       0.00000000       4.92727273       0.00000000       0.00000000      -0.52759498
2
Properties=species:S:1:pos:R:3:forces:R:3 energy=-4.8635075595840975 pbc="F F F"
Y        0.00000000       0.00000000       0.00000000       0.00000000       0.00000000       0.50630212
Y        0.00000000       0.00000000       4.98686869       0.00000000       0.00000000      -0.50630212
2
Properties=species:S:1:pos:R:3:forces:R:3 energy=-4.833879047794961 pbc="F F F"
Y        0.00000000       0.00000000       0.00000000       0.00000000       0.00000000       0.48838899
Y        0.00000000       0.00000000       5.04646465       0.00000000       0.00000000      -0.48838899
2
Properties=species:S:1:pos:R:3:forces:R:3 energy=-4.805259201077812 pbc="F F F"
Y        0.00000000       0.00000000       0.00000000       0.00000000       0.00000000       0.47274899
Y        0.00000000       0.00000000       5.10606061       0.00000000       0.00000000      -0.47274899
2
Properties=species:S:1:pos:R:3:forces:R:3 energy=-4.777336234680636 pbc="F F F"
Y        0.00000000       0.00000000       0.00000000       0.00000000       0.00000000       0.46689099
Y        0.00000000       0.00000000       5.16565657       0.00000000       0.00000000      -0.46689099
2
Properties=species:S:1:pos:R:3:forces:R:3 energy=-4.74916872172685 pbc="F F F"
Y        0.00000000       0.00000000       0.00000000       0.00000000       0.00000000       0.48260692
Y        0.00000000       0.00000000       5.22525253       0.00000000       0.00000000      -0.48260692
2
Properties=species:S:1:pos:R:3:forces:R:3 energy=-4.719416002261215 pbc="F F F"
Y        0.00000000       0.00000000       0.00000000       0.00000000       0.00000000       0.51739413
Y        0.00000000       0.00000000       5.28484848       0.00000000       0.00000000      -0.51739413
2
Properties=species:S:1:pos:R:3:forces:R:3 energy=-4.687676880564815 pbc="F F F"
Y        0.00000000       0.00000000       0.00000000       0.00000000       0.00000000       0.54310572
Y        0.00000000       0.00000000       5.34444444       0.00000000       0.00000000      -0.54310572
2
Properties=species:S:1:pos:R:3:forces:R:3 energy=-4.655459779695739 pbc="F F F"
Y        0.00000000       0.00000000       0.00000000       0.00000000       0.00000000       0.53101140
Y        0.00000000       0.00000000       5.40404040       0.00000000       0.00000000      -0.53101140
2
Properties=species:S:1:pos:R:3:forces:R:3 energy=-4.624981309919222 pbc="F F F"
Y        0.00000000       0.00000000       0.00000000       0.00000000       0.00000000       0.48999718
Y        0.00000000       0.00000000       5.46363636       0.00000000       0.00000000      -0.48999718
2
Properties=species:S:1:pos:R:3:forces:R:3 energy=-4.596698693434739 pbc="F F F"
Y        0.00000000       0.00000000       0.00000000       0.00000000       0.00000000       0.46744475
Y        0.00000000       0.00000000       5.52323232       0.00000000       0.00000000      -0.46744475
2
Properties=species:S:1:pos:R:3:forces:R:3 energy=-4.567947822417512 pbc="F F F"
Y        0.00000000       0.00000000       0.00000000       0.00000000       0.00000000       0.50974542
Y        0.00000000       0.00000000       5.58282828       0.00000000       0.00000000      -0.50974542
2
Properties=species:S:1:pos:R:3:forces:R:3 energy=-4.5347746321520646 pbc="F F F"
Y        0.00000000       0.00000000       0.00000000       0.00000000       0.00000000       0.60814625
Y        0.00000000       0.00000000       5.64242424       0.00000000       0.00000000      -0.60814625
2
Properties=species:S:1:pos:R:3:forces:R:3 energy=-4.4958857475730865 pbc="F F F"
Y        0.00000000       0.00000000       0.00000000       0.00000000       0.00000000       0.68354064
Y        0.00000000       0.00000000       5.70202020       0.00000000       0.00000000      -0.68354064
2
Properties=species:S:1:pos:R:3:forces:R:3 energy=-4.455600016575689 pbc="F F F"
Y        0.00000000       0.00000000       0.00000000       0.00000000       0.00000000       0.64752239
Y        0.00000000       0.00000000       5.76161616       0.00000000       0.00000000      -0.64752239
2
Properties=species:S:1:pos:R:3:forces:R:3 energy=-4.421257307205646 pbc="F F F"
Y        0.00000000       0.00000000       0.00000000       0.00000000       0.00000000       0.48713249
Y        0.00000000       0.00000000       5.82121212       0.00000000       0.00000000      -0.48713249
2
Properties=species:S:1:pos:R:3:forces:R:3 energy=-4.39868912019264 pbc="F F F"
Y        0.00000000       0.00000000       0.00000000       0.00000000       0.00000000       0.27232844
Y        0.00000000       0.00000000       5.88080808       0.00000000       0.00000000      -0.27232844
2
Properties=species:S:1:pos:R:3:forces:R:3 energy=-4.387922184784544 pbc="F F F"
Y        0.00000000       0.00000000       0.00000000       0.00000000       0.00000000       0.09928206
Y        0.00000000       0.00000000       5.94040404       0.00000000       0.00000000      -0.09928206
2
Properties=species:S:1:pos:R:3:forces:R:3 energy=-4.384625760892877 pbc="F F F"
Y        0.00000000       0.00000000       0.00000000       0.00000000       0.00000000       0.03343363
Y        0.00000000       0.00000000       6.00000000       0.00000000       0.00000000      -0.03343363
