2
Properties=species:S:1:pos:R:3:forces:R:3 energy=-2794367.1163657145 pbc="F F F"
Ac       0.00000000       0.00000000       0.00000000       0.00000000       0.00000000 -201580.92187500
Ac       0.00000000       0.00000000       0.18000000       0.00000000       0.00000000  201580.92187500
2
Properties=species:S:1:pos:R:3:forces:R:3 energy=-2791804.8663657145 pbc="F F F"
Ac       0.00000000       0.00000000       0.00000000       0.00000000       0.00000000  269284.31250000
Ac       0.00000000       0.00000000       0.23878788       0.00000000       0.00000000 -269284.31250000
2
Properties=species:S:1:pos:R:3:forces:R:3 energy=-2761646.3663657145 pbc="F F F"
Ac       0.00000000       0.00000000       0.00000000       0.00000000       0.00000000  782202.81250000
Ac       0.00000000       0.00000000       0.29757576       0.00000000       0.00000000 -782202.81250000
2
Properties=species:S:1:pos:R:3:forces:R:3 energy=-2695407.6163657145 pbc="F F F"
Ac       0.00000000       0.00000000       0.00000000       0.00000000       0.00000000 1515774.87500000
Ac       0.00000000       0.00000000       0.35636364       0.00000000       0.00000000 -1515774.87500000
2
Properties=species:S:1:pos:R:3:forces:R:3 energy=-2577924.1163657145 pbc="F F F"
Ac       0.00000000       0.00000000       0.00000000       0.00000000       0.00000000 2527494.25000000
Ac       0.00000000       0.00000000       0.41515152       0.00000000       0.00000000 -2527494.25000000
2
Properties=species:S:1:pos:R:3:forces:R:3 energy=-2393330.366365702 pbc="F F F"
Ac       0.00000000       0.00000000       0.00000000       0.00000000       0.00000000 3785758.25000000
Ac       0.00000000       0.00000000       0.47393939       0.00000000       0.00000000 -3785758.25000000
2
Properties=species:S:1:pos:R:3:forces:R:3 energy=-2130751.116365689 pbc="F F F"
Ac       0.00000000       0.00000000       0.00000000       0.00000000       0.00000000 5145108.00000000
Ac       0.00000000       0.00000000       0.53272727       0.00000000       0.00000000 -5145108.00000000
2
Properties=species:S:1:pos:R:3:forces:R:3 energy=-1791662.3663656763 pbc="F F F"
Ac       0.00000000       0.00000000       0.00000000       0.00000000       0.00000000 6333581.00000000
Ac       0.00000000       0.00000000       0.59151515       0.00000000       0.00000000 -6333581.00000000
2
Properties=species:S:1:pos:R:3:forces:R:3 energy=-1396389.4913656511 pbc="F F F"
Ac       0.00000000       0.00000000       0.00000000       0.00000000       0.00000000 6996659.00000000
Ac       0.00000000       0.00000000       0.65030303       0.00000000       0.00000000 -6996659.00000000
2
Properties=species:S:1:pos:R:3:forces:R:3 energy=-985515.2413656004 pbc="F F F"
Ac       0.00000000       0.00000000       0.00000000       0.00000000       0.00000000 6826873.00000000
Ac       0.00000000       0.00000000       0.70909091       0.00000000       0.00000000 -6826873.00000000
2
Properties=species:S:1:pos:R:3:forces:R:3 energy=-611748.991365537 pbc="F F F"
Ac       0.00000000       0.00000000       0.00000000       0.00000000       0.00000000 5750451.00000000
Ac       0.00000000       0.00000000       0.76787879       0.00000000       0.00000000 -5750451.00000000
2
Properties=species:S:1:pos:R:3:forces:R:3 energy=-321791.05386543565 pbc="F F F"
Ac       0.00000000       0.00000000       0.00000000       0.00000000       0.00000000 4052092.00000000
Ac       0.00000000       0.00000000       0.82666667       0.00000000       0.00000000 -4052092.00000000
2
Properties=species:S:1:pos:R:3:forces:R:3 energy=-136571.75699028358 pbc="F F F"
Ac       0.00000000       0.00000000       0.00000000       0.00000000       0.00000000 2288240.25000000
Ac       0.00000000       0.00000000       0.88545455       0.00000000       0.00000000 -2288240.25000000
2
Properties=species:S:1:pos:R:3:forces:R:3 energy=-42329.702302568156 pbc="F F F"
Ac       0.00000000       0.00000000       0.00000000       0.00000000       0.00000000 1053391.75000000
Ac       0.00000000       0.00000000       0.94424242       0.00000000       0.00000000 -1053391.75000000
2
Properties=species:S:1:pos:R:3:forces:R:3 energy=-7312.356599164391 pbc="F F F"
Ac       0.00000000       0.00000000       0.00000000       0.00000000       0.00000000  272270.31250000
Ac       0.00000000       0.00000000       1.00303030       0.00000000       0.00000000 -272270.31250000
2
Properties=species:S:1:pos:R:3:forces:R:3 energy=-429.9850167530019 pbc="F F F"
Ac       0.00000000       0.00000000       0.00000000       0.00000000       0.00000000   26849.44921875
Ac       0.00000000       0.00000000       1.06181818       0.00000000       0.00000000  -26849.44921875
2
Properties=species:S:1:pos:R:3:forces:R:3 energy=62.521094911540445 pbc="F F F"
Ac       0.00000000       0.00000000       0.00000000       0.00000000       0.00000000    1473.34204102
Ac       0.00000000       0.00000000       1.12060606       0.00000000       0.00000000   -1473.34204102
2
Properties=species:S:1:pos:R:3:forces:R:3 energy=108.47327452552558 pbc="F F F"
Ac       0.00000000       0.00000000       0.00000000       0.00000000       0.00000000     133.49067688
Ac       0.00000000       0.00000000       1.17939394       0.00000000       0.00000000    -133.49067688
2
Properties=species:S:1:pos:R:3:forces:R:3 energy=110.31956597555211 pbc="F F F"
Ac       0.00000000       0.00000000       0.00000000       0.00000000       0.00000000     -49.05093002
Ac       0.00000000       0.00000000       1.23818182       0.00000000       0.00000000      49.05093002
2
Properties=species:S:1:pos:R:3:forces:R:3 energy=104.53085554277395 pbc="F F F"
Ac       0.00000000       0.00000000       0.00000000       0.00000000       0.00000000    -125.34828186
Ac       0.00000000       0.00000000       1.29696970       0.00000000       0.00000000     125.34828186
2
Properties=species:S:1:pos:R:3:forces:R:3 energy=96.19952759091257 pbc="F F F"
Ac       0.00000000       0.00000000       0.00000000       0.00000000       0.00000000    -154.55490112
Ac       0.00000000       0.00000000       1.35575758       0.00000000       0.00000000     154.55490112
2
Properties=species:S:1:pos:R:3:forces:R:3 energy=86.66595237421836 pbc="F F F"
Ac       0.00000000       0.00000000       0.00000000       0.00000000       0.00000000    -168.70893860
Ac       0.00000000       0.00000000       1.41454545       0.00000000       0.00000000     168.70893860
2
Properties=species:S:1:pos:R:3:forces:R:3 energy=76.46318810988039 pbc="F F F"
Ac       0.00000000       0.00000000       0.00000000       0.00000000       0.00000000    -177.20181274
Ac       0.00000000       0.00000000       1.47333333       0.00000000       0.00000000     177.20181274
2
Properties=species:S:1:pos:R:3:forces:R:3 energy=66.01816058379123 pbc="F F F"
Ac       0.00000000       0.00000000       0.00000000       0.00000000       0.00000000    -176.37860107
Ac       0.00000000       0.00000000       1.53212121       0.00000000       0.00000000     176.37860107
2
Properties=species:S:1:pos:R:3:forces:R:3 energy=55.913999716777234 pbc="F F F"
Ac       0.00000000       0.00000000       0.00000000       0.00000000       0.00000000    -166.06742859
Ac       0.00000000       0.00000000       1.59090909       0.00000000       0.00000000     166.06742859
2
Properties=species:S:1:pos:R:3:forces:R:3 energy=46.60575707034174 pbc="F F F"
Ac       0.00000000       0.00000000       0.00000000       0.00000000       0.00000000    -149.94932556
Ac       0.00000000       0.00000000       1.64969697       0.00000000       0.00000000     149.94932556
2
Properties=species:S:1:pos:R:3:forces:R:3 energy=38.33171399585504 pbc="F F F"
Ac       0.00000000       0.00000000       0.00000000       0.00000000       0.00000000    -131.35107422
Ac       0.00000000       0.00000000       1.70848485       0.00000000       0.00000000     131.35107422
2
Properties=species:S:1:pos:R:3:forces:R:3 energy=31.161908487169473 pbc="F F F"
Ac       0.00000000       0.00000000       0.00000000       0.00000000       0.00000000    -112.72897339
Ac       0.00000000       0.00000000       1.76727273       0.00000000       0.00000000     112.72897339
2
Properties=species:S:1:pos:R:3:forces:R:3 energy=25.04841473457254 pbc="F F F"
Ac       0.00000000       0.00000000       0.00000000       0.00000000       0.00000000     -95.54666138
Ac       0.00000000       0.00000000       1.82606061       0.00000000       0.00000000      95.54666138
2
Properties=species:S:1:pos:R:3:forces:R:3 energy=19.893841774250948 pbc="F F F"
Ac       0.00000000       0.00000000       0.00000000       0.00000000       0.00000000     -80.08925629
Ac       0.00000000       0.00000000       1.88484848       0.00000000       0.00000000      80.08925629
2
Properties=species:S:1:pos:R:3:forces:R:3 energy=15.60131558455606 pbc="F F F"
Ac       0.00000000       0.00000000       0.00000000       0.00000000       0.00000000     -66.20343018
Ac       0.00000000       0.00000000       1.94363636       0.00000000       0.00000000      66.20343018
2
Properties=species:S:1:pos:R:3:forces:R:3 energy=12.077409651150466 pbc="F F F"
Ac       0.00000000       0.00000000       0.00000000       0.00000000       0.00000000     -53.98368835
Ac       0.00000000       0.00000000       2.00242424       0.00000000       0.00000000      53.98368835
2
Properties=species:S:1:pos:R:3:forces:R:3 energy=9.215991720135717 pbc="F F F"
Ac       0.00000000       0.00000000       0.00000000       0.00000000       0.00000000     -43.70159531
Ac       0.00000000       0.00000000       2.06121212       0.00000000       0.00000000      43.70159531
2
Properties=species:S:1:pos:R:3:forces:R:3 energy=6.900103439444814 pbc="F F F"
Ac       0.00000000       0.00000000       0.00000000       0.00000000       0.00000000     -35.40188980
Ac       0.00000000       0.00000000       2.12000000       0.00000000       0.00000000      35.40188980
2
Properties=species:S:1:pos:R:3:forces:R:3 energy=5.019897078056456 pbc="F F F"
Ac       0.00000000       0.00000000       0.00000000       0.00000000       0.00000000     -28.81696510
Ac       0.00000000       0.00000000       2.17878788       0.00000000       0.00000000      28.81696510
2
Properties=species:S:1:pos:R:3:forces:R:3 energy=3.4862859306516354 pbc="F F F"
Ac       0.00000000       0.00000000       0.00000000       0.00000000       0.00000000     -23.54178429
Ac       0.00000000       0.00000000       2.23757576       0.00000000       0.00000000      23.54178429
2
Properties=species:S:1:pos:R:3:forces:R:3 energy=2.233762037080486 pbc="F F F"
Ac       0.00000000       0.00000000       0.00000000       0.00000000       0.00000000     -19.19886398
Ac       0.00000000       0.00000000       2.29636364       0.00000000       0.00000000      19.19886398
2
Properties=species:S:1:pos:R:3:forces:R:3 energy=1.2159587029218635 pbc="F F F"
Ac       0.00000000       0.00000000       0.00000000       0.00000000       0.00000000     -15.52490616
Ac       0.00000000       0.00000000       2.35515152       0.00000000       0.00000000      15.52490616
2
Properties=species:S:1:pos:R:3:forces:R:3 energy=0.3977838986407781 pbc="F F F"
Ac       0.00000000       0.00000000       0.00000000       0.00000000       0.00000000     -12.39684963
Ac       0.00000000       0.00000000       2.41393939       0.00000000       0.00000000      12.39684963
2
Properties=species:S:1:pos:R:3:forces:R:3 energy=-0.2517578041128712 pbc="F F F"
Ac       0.00000000       0.00000000       0.00000000       0.00000000       0.00000000      -9.78648472
Ac       0.00000000       0.00000000       2.47272727       0.00000000       0.00000000       9.78648472
2
Properties=species:S:1:pos:R:3:forces:R:3 energy=-0.7627198672257325 pbc="F F F"
Ac       0.00000000       0.00000000       0.00000000       0.00000000       0.00000000      -7.67728281
Ac       0.00000000       0.00000000       2.53151515       0.00000000       0.00000000       7.67728281
2
Properties=species:S:1:pos:R:3:forces:R:3 energy=-1.1632477534682413 pbc="F F F"
Ac       0.00000000       0.00000000       0.00000000       0.00000000       0.00000000      -6.01749325
Ac       0.00000000       0.00000000       2.59030303       0.00000000       0.00000000       6.01749325
2
Properties=species:S:1:pos:R:3:forces:R:3 energy=-1.4774496646016164 pbc="F F F"
Ac       0.00000000       0.00000000       0.00000000       0.00000000       0.00000000      -4.72579288
Ac       0.00000000       0.00000000       2.64909091       0.00000000       0.00000000       4.72579288
2
Properties=species:S:1:pos:R:3:forces:R:3 energy=-1.724388150705498 pbc="F F F"
Ac       0.00000000       0.00000000       0.00000000       0.00000000       0.00000000      -3.71541023
Ac       0.00000000       0.00000000       2.70787879       0.00000000       0.00000000       3.71541023
2
Properties=species:S:1:pos:R:3:forces:R:3 energy=-1.9183418550559863 pbc="F F F"
Ac       0.00000000       0.00000000       0.00000000       0.00000000       0.00000000      -2.91258430
Ac       0.00000000       0.00000000       2.76666667       0.00000000       0.00000000       2.91258430
2
Properties=species:S:1:pos:R:3:forces:R:3 energy=-2.0698758436513662 pbc="F F F"
Ac       0.00000000       0.00000000       0.00000000       0.00000000       0.00000000      -2.26550865
Ac       0.00000000       0.00000000       2.82545455       0.00000000       0.00000000       2.26550865
2
Properties=species:S:1:pos:R:3:forces:R:3 energy=-2.1871521109460037 pbc="F F F"
Ac       0.00000000       0.00000000       0.00000000       0.00000000       0.00000000      -1.74329102
Ac       0.00000000       0.00000000       2.88424242       0.00000000       0.00000000       1.74329102
2
Properties=species:S:1:pos:R:3:forces:R:3 energy=-2.2769101142707657 pbc="F F F"
Ac       0.00000000       0.00000000       0.00000000       0.00000000       0.00000000      -1.32647955
Ac       0.00000000       0.00000000       2.94303030       0.00000000       0.00000000       1.32647955
2
Properties=species:S:1:pos:R:3:forces:R:3 energy=-2.3448279146239175 pbc="F F F"
Ac       0.00000000       0.00000000       0.00000000       0.00000000       0.00000000      -0.99706137
Ac       0.00000000       0.00000000       3.00181818       0.00000000       0.00000000       0.99706137
2
Properties=species:S:1:pos:R:3:forces:R:3 energy=-2.3954633609739115 pbc="F F F"
Ac       0.00000000       0.00000000       0.00000000       0.00000000       0.00000000      -0.73519713
Ac       0.00000000       0.00000000       3.06060606       0.00000000       0.00000000       0.73519713
2
Properties=species:S:1:pos:R:3:forces:R:3 energy=-2.4322176347275746 pbc="F F F"
Ac       0.00000000       0.00000000       0.00000000       0.00000000       0.00000000      -0.52185267
Ac       0.00000000       0.00000000       3.11939394       0.00000000       0.00000000       0.52185267
2
Properties=species:S:1:pos:R:3:forces:R:3 energy=-2.4574786740085117 pbc="F F F"
Ac       0.00000000       0.00000000       0.00000000       0.00000000       0.00000000      -0.34230235
Ac       0.00000000       0.00000000       3.17818182       0.00000000       0.00000000       0.34230235
2
Properties=species:S:1:pos:R:3:forces:R:3 energy=-2.472934909500535 pbc="F F F"
Ac       0.00000000       0.00000000       0.00000000       0.00000000       0.00000000      -0.18694554
Ac       0.00000000       0.00000000       3.23696970       0.00000000       0.00000000       0.18694554
2
Properties=species:S:1:pos:R:3:forces:R:3 energy=-2.479811435889239 pbc="F F F"
Ac       0.00000000       0.00000000       0.00000000       0.00000000       0.00000000      -0.04958696
Ac       0.00000000       0.00000000       3.29575758       0.00000000       0.00000000       0.04958696
2
Properties=species:S:1:pos:R:3:forces:R:3 energy=-2.4790240786133575 pbc="F F F"
Ac       0.00000000       0.00000000       0.00000000       0.00000000       0.00000000       0.07452650
Ac       0.00000000       0.00000000       3.35454545       0.00000000       0.00000000      -0.07452650
2
Properties=species:S:1:pos:R:3:forces:R:3 energy=-2.47123020703649 pbc="F F F"
Ac       0.00000000       0.00000000       0.00000000       0.00000000       0.00000000       0.18937914
Ac       0.00000000       0.00000000       3.41333333       0.00000000       0.00000000      -0.18937914
2
Properties=species:S:1:pos:R:3:forces:R:3 energy=-2.456886338372422 pbc="F F F"
Ac       0.00000000       0.00000000       0.00000000       0.00000000       0.00000000       0.29758745
Ac       0.00000000       0.00000000       3.47212121       0.00000000       0.00000000      -0.29758745
2
Properties=species:S:1:pos:R:3:forces:R:3 energy=-2.436360561884668 pbc="F F F"
Ac       0.00000000       0.00000000       0.00000000       0.00000000       0.00000000       0.39965338
Ac       0.00000000       0.00000000       3.53090909       0.00000000       0.00000000      -0.39965338
2
Properties=species:S:1:pos:R:3:forces:R:3 energy=-2.4100485093503226 pbc="F F F"
Ac       0.00000000       0.00000000       0.00000000       0.00000000       0.00000000       0.49395686
Ac       0.00000000       0.00000000       3.58969697       0.00000000       0.00000000      -0.49395686
2
Properties=species:S:1:pos:R:3:forces:R:3 energy=-2.3784869310027297 pbc="F F F"
Ac       0.00000000       0.00000000       0.00000000       0.00000000       0.00000000       0.57780337
Ac       0.00000000       0.00000000       3.64848485       0.00000000       0.00000000      -0.57780337
2
Properties=species:S:1:pos:R:3:forces:R:3 energy=-2.3423646984640856 pbc="F F F"
Ac       0.00000000       0.00000000       0.00000000       0.00000000       0.00000000       0.64888698
Ac       0.00000000       0.00000000       3.70727273       0.00000000       0.00000000      -0.64888698
2
Properties=species:S:1:pos:R:3:forces:R:3 energy=-2.3024601283376147 pbc="F F F"
Ac       0.00000000       0.00000000       0.00000000       0.00000000       0.00000000       0.70639545
Ac       0.00000000       0.00000000       3.76606061       0.00000000       0.00000000      -0.70639545
2
Properties=species:S:1:pos:R:3:forces:R:3 energy=-2.2595590525794758 pbc="F F F"
Ac       0.00000000       0.00000000       0.00000000       0.00000000       0.00000000       0.75120538
Ac       0.00000000       0.00000000       3.82484848       0.00000000       0.00000000      -0.75120538
2
Properties=species:S:1:pos:R:3:forces:R:3 energy=-2.2143490493486606 pbc="F F F"
Ac       0.00000000       0.00000000       0.00000000       0.00000000       0.00000000       0.78520972
Ac       0.00000000       0.00000000       3.88363636       0.00000000       0.00000000      -0.78520972
2
Properties=species:S:1:pos:R:3:forces:R:3 energy=-2.16740944209796 pbc="F F F"
Ac       0.00000000       0.00000000       0.00000000       0.00000000       0.00000000       0.81037205
Ac       0.00000000       0.00000000       3.94242424       0.00000000       0.00000000      -0.81037205
2
Properties=species:S:1:pos:R:3:forces:R:3 energy=-2.119215639457638 pbc="F F F"
Ac       0.00000000       0.00000000       0.00000000       0.00000000       0.00000000       0.82806760
Ac       0.00000000       0.00000000       4.00121212       0.00000000       0.00000000      -0.82806760
2
Properties=species:S:1:pos:R:3:forces:R:3 energy=-2.070181012878143 pbc="F F F"
Ac       0.00000000       0.00000000       0.00000000       0.00000000       0.00000000       0.83903223
Ac       0.00000000       0.00000000       4.06000000       0.00000000       0.00000000      -0.83903223
2
Properties=species:S:1:pos:R:3:forces:R:3 energy=-2.0206884087282 pbc="F F F"
Ac       0.00000000       0.00000000       0.00000000       0.00000000       0.00000000       0.84375149
Ac       0.00000000       0.00000000       4.11878788       0.00000000       0.00000000      -0.84375149
2
Properties=species:S:1:pos:R:3:forces:R:3 energy=-1.971084735527535 pbc="F F F"
Ac       0.00000000       0.00000000       0.00000000       0.00000000       0.00000000       0.84294134
Ac       0.00000000       0.00000000       4.17757576       0.00000000       0.00000000      -0.84294134
2
Properties=species:S:1:pos:R:3:forces:R:3 energy=-1.921662278598681 pbc="F F F"
Ac       0.00000000       0.00000000       0.00000000       0.00000000       0.00000000       0.83784348
Ac       0.00000000       0.00000000       4.23636364       0.00000000       0.00000000      -0.83784348
2
Properties=species:S:1:pos:R:3:forces:R:3 energy=-1.872623885786739 pbc="F F F"
Ac       0.00000000       0.00000000       0.00000000       0.00000000       0.00000000       0.83018208
Ac       0.00000000       0.00000000       4.29515152       0.00000000       0.00000000      -0.83018208
2
Properties=species:S:1:pos:R:3:forces:R:3 energy=-1.8240665977728432 pbc="F F F"
Ac       0.00000000       0.00000000       0.00000000       0.00000000       0.00000000       0.82188702
Ac       0.00000000       0.00000000       4.35393939       0.00000000       0.00000000      -0.82188702
2
Properties=species:S:1:pos:R:3:forces:R:3 energy=-1.775967725929861 pbc="F F F"
Ac       0.00000000       0.00000000       0.00000000       0.00000000       0.00000000       0.81477779
Ac       0.00000000       0.00000000       4.41272727       0.00000000       0.00000000      -0.81477779
2
Properties=species:S:1:pos:R:3:forces:R:3 energy=-1.728216518811855 pbc="F F F"
Ac       0.00000000       0.00000000       0.00000000       0.00000000       0.00000000       0.81023490
Ac       0.00000000       0.00000000       4.47151515       0.00000000       0.00000000      -0.81023490
2
Properties=species:S:1:pos:R:3:forces:R:3 energy=-1.6806382297592843 pbc="F F F"
Ac       0.00000000       0.00000000       0.00000000       0.00000000       0.00000000       0.80895907
Ac       0.00000000       0.00000000       4.53030303       0.00000000       0.00000000      -0.80895907
2
Properties=species:S:1:pos:R:3:forces:R:3 energy=-1.63304080375895 pbc="F F F"
Ac       0.00000000       0.00000000       0.00000000       0.00000000       0.00000000       0.81083047
Ac       0.00000000       0.00000000       4.58909091       0.00000000       0.00000000      -0.81083047
2
Properties=species:S:1:pos:R:3:forces:R:3 energy=-1.5852618459040781 pbc="F F F"
Ac       0.00000000       0.00000000       0.00000000       0.00000000       0.00000000       0.81490076
Ac       0.00000000       0.00000000       4.64787879       0.00000000       0.00000000      -0.81490076
2
Properties=species:S:1:pos:R:3:forces:R:3 energy=-1.5372162239147167 pbc="F F F"
Ac       0.00000000       0.00000000       0.00000000       0.00000000       0.00000000       0.81952971
Ac       0.00000000       0.00000000       4.70666667       0.00000000       0.00000000      -0.81952971
2
Properties=species:S:1:pos:R:3:forces:R:3 energy=-1.488932007154688 pbc="F F F"
Ac       0.00000000       0.00000000       0.00000000       0.00000000       0.00000000       0.82278562
Ac       0.00000000       0.00000000       4.76545455       0.00000000       0.00000000      -0.82278562
2
Properties=species:S:1:pos:R:3:forces:R:3 energy=-1.4405352015068842 pbc="F F F"
Ac       0.00000000       0.00000000       0.00000000       0.00000000       0.00000000       0.82306129
Ac       0.00000000       0.00000000       4.82424242       0.00000000       0.00000000      -0.82306129
2
Properties=species:S:1:pos:R:3:forces:R:3 energy=-1.3922328164864555 pbc="F F F"
Ac       0.00000000       0.00000000       0.00000000       0.00000000       0.00000000       0.81981444
Ac       0.00000000       0.00000000       4.88303030       0.00000000       0.00000000      -0.81981444
2
Properties=species:S:1:pos:R:3:forces:R:3 energy=-1.3441928266539278 pbc="F F F"
Ac       0.00000000       0.00000000       0.00000000       0.00000000       0.00000000       0.81423974
Ac       0.00000000       0.00000000       4.94181818       0.00000000       0.00000000      -0.81423974
2
Properties=species:S:1:pos:R:3:forces:R:3 energy=-1.2964791351962124 pbc="F F F"
Ac       0.00000000       0.00000000       0.00000000       0.00000000       0.00000000       0.80941606
Ac       0.00000000       0.00000000       5.00060606       0.00000000       0.00000000      -0.80941606
2
Properties=species:S:1:pos:R:3:forces:R:3 energy=-1.2489237498899877 pbc="F F F"
Ac       0.00000000       0.00000000       0.00000000       0.00000000       0.00000000       0.80961967
Ac       0.00000000       0.00000000       5.05939394       0.00000000       0.00000000      -0.80961967
2
Properties=species:S:1:pos:R:3:forces:R:3 energy=-1.2011180681522715 pbc="F F F"
Ac       0.00000000       0.00000000       0.00000000       0.00000000       0.00000000       0.81830639
Ac       0.00000000       0.00000000       5.11818182       0.00000000       0.00000000      -0.81830639
2
Properties=species:S:1:pos:R:3:forces:R:3 energy=-1.1525552572816569 pbc="F F F"
Ac       0.00000000       0.00000000       0.00000000       0.00000000       0.00000000       0.83481985
Ac       0.00000000       0.00000000       5.17696970       0.00000000       0.00000000      -0.83481985
2
Properties=species:S:1:pos:R:3:forces:R:3 energy=-1.102984167832053 pbc="F F F"
Ac       0.00000000       0.00000000       0.00000000       0.00000000       0.00000000       0.85019523
Ac       0.00000000       0.00000000       5.23575758       0.00000000       0.00000000      -0.85019523
2
Properties=species:S:1:pos:R:3:forces:R:3 energy=-1.0529816700831103 pbc="F F F"
Ac       0.00000000       0.00000000       0.00000000       0.00000000       0.00000000       0.84591186
Ac       0.00000000       0.00000000       5.29454545       0.00000000       0.00000000      -0.84591186
2
Properties=species:S:1:pos:R:3:forces:R:3 energy=-1.0042198147293888 pbc="F F F"
Ac       0.00000000       0.00000000       0.00000000       0.00000000       0.00000000       0.80748558
Ac       0.00000000       0.00000000       5.35333333       0.00000000       0.00000000      -0.80748558
2
Properties=species:S:1:pos:R:3:forces:R:3 energy=-0.9582226703076169 pbc="F F F"
Ac       0.00000000       0.00000000       0.00000000       0.00000000       0.00000000       0.76147109
Ac       0.00000000       0.00000000       5.41212121       0.00000000       0.00000000      -0.76147109
2
Properties=species:S:1:pos:R:3:forces:R:3 energy=-0.9135683124444417 pbc="F F F"
Ac       0.00000000       0.00000000       0.00000000       0.00000000       0.00000000       0.76886266
Ac       0.00000000       0.00000000       5.47090909       0.00000000       0.00000000      -0.76886266
2
Properties=species:S:1:pos:R:3:forces:R:3 energy=-0.8673566060730039 pbc="F F F"
Ac       0.00000000       0.00000000       0.00000000       0.00000000       0.00000000       0.79651254
Ac       0.00000000       0.00000000       5.52969697       0.00000000       0.00000000      -0.79651254
2
Properties=species:S:1:pos:R:3:forces:R:3 energy=-0.8215698048103447 pbc="F F F"
Ac       0.00000000       0.00000000       0.00000000       0.00000000       0.00000000       0.74600416
Ac       0.00000000       0.00000000       5.58848485       0.00000000       0.00000000      -0.74600416
2
Properties=species:S:1:pos:R:3:forces:R:3 energy=-0.7806487724271239 pbc="F F F"
Ac       0.00000000       0.00000000       0.00000000       0.00000000       0.00000000       0.64752311
Ac       0.00000000       0.00000000       5.64727273       0.00000000       0.00000000      -0.64752311
2
Properties=species:S:1:pos:R:3:forces:R:3 energy=-0.7438465580589941 pbc="F F F"
Ac       0.00000000       0.00000000       0.00000000       0.00000000       0.00000000       0.62960637
Ac       0.00000000       0.00000000       5.70606061       0.00000000       0.00000000      -0.62960637
2
Properties=species:S:1:pos:R:3:forces:R:3 energy=-0.7037182972760803 pbc="F F F"
Ac       0.00000000       0.00000000       0.00000000       0.00000000       0.00000000       0.74295712
Ac       0.00000000       0.00000000       5.76484848       0.00000000       0.00000000      -0.74295712
2
Properties=species:S:1:pos:R:3:forces:R:3 energy=-0.6586765918839806 pbc="F F F"
Ac       0.00000000       0.00000000       0.00000000       0.00000000       0.00000000       0.74824029
Ac       0.00000000       0.00000000       5.82363636       0.00000000       0.00000000      -0.74824029
2
Properties=species:S:1:pos:R:3:forces:R:3 energy=-0.6214308848921 pbc="F F F"
Ac       0.00000000       0.00000000       0.00000000       0.00000000       0.00000000       0.48697844
Ac       0.00000000       0.00000000       5.88242424       0.00000000       0.00000000      -0.48697844
2
Properties=species:S:1:pos:R:3:forces:R:3 energy=-0.6025301550932466 pbc="F F F"
Ac       0.00000000       0.00000000       0.00000000       0.00000000       0.00000000       0.16782168
Ac       0.00000000       0.00000000       5.94121212       0.00000000       0.00000000      -0.16782168
2
Properties=species:S:1:pos:R:3:forces:R:3 energy=-0.5978550879299225 pbc="F F F"
Ac       0.00000000       0.00000000       0.00000000       0.00000000       0.00000000       0.03497398
Ac       0.00000000       0.00000000       6.00000000       0.00000000       0.00000000      -0.03497398
