2
Properties=species:S:1:pos:R:3:forces:R:3 energy=-2715146.6163657145 pbc="F F F"
Ac       0.00000000       0.00000000       0.00000000       0.00000000       0.00000000 -2644058.00000000
Ac       0.00000000       0.00000000       0.10000000       0.00000000       0.00000000 2644058.00000000
2
Properties=species:S:1:pos:R:3:forces:R:3 energy=-2787954.6163657145 pbc="F F F"
Ac       0.00000000       0.00000000       0.00000000       0.00000000       0.00000000 -443532.90625000
Ac       0.00000000       0.00000000       0.15959596       0.00000000       0.00000000  443532.90625000
2
Properties=species:S:1:pos:R:3:forces:R:3 energy=-2795608.1163657145 pbc="F F F"
Ac       0.00000000       0.00000000       0.00000000       0.00000000       0.00000000  123074.37500000
Ac       0.00000000       0.00000000       0.21919192       0.00000000       0.00000000 -123074.37500000
2
Properties=species:S:1:pos:R:3:forces:R:3 energy=-2774577.3663657145 pbc="F F F"
Ac       0.00000000       0.00000000       0.00000000       0.00000000       0.00000000  599422.43750000
Ac       0.00000000       0.00000000       0.27878788       0.00000000       0.00000000 -599422.43750000
2
Properties=species:S:1:pos:R:3:forces:R:3 energy=-2720379.3663657145 pbc="F F F"
Ac       0.00000000       0.00000000       0.00000000       0.00000000       0.00000000 1262948.00000000
Ac       0.00000000       0.00000000       0.33838384       0.00000000       0.00000000 -1262948.00000000
2
Properties=species:S:1:pos:R:3:forces:R:3 energy=-2618538.3663657145 pbc="F F F"
Ac       0.00000000       0.00000000       0.00000000       0.00000000       0.00000000 2203192.75000000
Ac       0.00000000       0.00000000       0.39797980       0.00000000       0.00000000 -2203192.75000000
2
Properties=species:S:1:pos:R:3:forces:R:3 energy=-2452269.116365702 pbc="F F F"
Ac       0.00000000       0.00000000       0.00000000       0.00000000       0.00000000 3416825.75000000
Ac       0.00000000       0.00000000       0.45757576       0.00000000       0.00000000 -3416825.75000000
2
Properties=species:S:1:pos:R:3:forces:R:3 energy=-2208048.366365702 pbc="F F F"
Ac       0.00000000       0.00000000       0.00000000       0.00000000       0.00000000 4788806.00000000
Ac       0.00000000       0.00000000       0.51717172       0.00000000       0.00000000 -4788806.00000000
2
Properties=species:S:1:pos:R:3:forces:R:3 energy=-1883186.3663656763 pbc="F F F"
Ac       0.00000000       0.00000000       0.00000000       0.00000000       0.00000000 6070472.50000000
Ac       0.00000000       0.00000000       0.57676768       0.00000000       0.00000000 -6070472.50000000
2
Properties=species:S:1:pos:R:3:forces:R:3 energy=-1493349.7413656637 pbc="F F F"
Ac       0.00000000       0.00000000       0.00000000       0.00000000       0.00000000 6905784.50000000
Ac       0.00000000       0.00000000       0.63636364       0.00000000       0.00000000 -6905784.50000000
2
Properties=species:S:1:pos:R:3:forces:R:3 energy=-1075998.491365613 pbc="F F F"
Ac       0.00000000       0.00000000       0.00000000       0.00000000       0.00000000 6946103.50000000
Ac       0.00000000       0.00000000       0.69595960       0.00000000       0.00000000 -6946103.50000000
2
Properties=species:S:1:pos:R:3:forces:R:3 energy=-684437.428865537 pbc="F F F"
Ac       0.00000000       0.00000000       0.00000000       0.00000000       0.00000000 6042540.00000000
Ac       0.00000000       0.00000000       0.75555556       0.00000000       0.00000000 -6042540.00000000
2
Properties=species:S:1:pos:R:3:forces:R:3 energy=-370516.83511546097 pbc="F F F"
Ac       0.00000000       0.00000000       0.00000000       0.00000000       0.00000000 4409221.50000000
Ac       0.00000000       0.00000000       0.81515152       0.00000000       0.00000000 -4409221.50000000
2
Properties=species:S:1:pos:R:3:forces:R:3 energy=-162663.3819903089 pbc="F F F"
Ac       0.00000000       0.00000000       0.00000000       0.00000000       0.00000000 2587757.00000000
Ac       0.00000000       0.00000000       0.87474747       0.00000000       0.00000000 -2587757.00000000
2
Properties=species:S:1:pos:R:3:forces:R:3 energy=-53807.37808385617 pbc="F F F"
Ac       0.00000000       0.00000000       0.00000000       0.00000000       0.00000000 1269922.87500000
Ac       0.00000000       0.00000000       0.93434343       0.00000000       0.00000000 -1269922.87500000
2
Properties=species:S:1:pos:R:3:forces:R:3 energy=-10154.131989827405 pbc="F F F"
Ac       0.00000000       0.00000000       0.00000000       0.00000000       0.00000000  355709.40625000
Ac       0.00000000       0.00000000       0.99393939       0.00000000       0.00000000 -355709.40625000
2
Properties=species:S:1:pos:R:3:forces:R:3 energy=-711.3131418163583 pbc="F F F"
Ac       0.00000000       0.00000000       0.00000000       0.00000000       0.00000000   44870.20312500
Ac       0.00000000       0.00000000       1.05353535       0.00000000       0.00000000  -44870.20312500
2
Properties=species:S:1:pos:R:3:forces:R:3 energy=50.18442491363771 pbc="F F F"
Ac       0.00000000       0.00000000       0.00000000       0.00000000       0.00000000    2010.56054688
Ac       0.00000000       0.00000000       1.11313131       0.00000000       0.00000000   -2010.56054688
2
Properties=species:S:1:pos:R:3:forces:R:3 energy=107.44907401004473 pbc="F F F"
Ac       0.00000000       0.00000000       0.00000000       0.00000000       0.00000000     175.56512451
Ac       0.00000000       0.00000000       1.17272727       0.00000000       0.00000000    -175.56512451
2
Properties=species:S:1:pos:R:3:forces:R:3 energy=110.5565577691773 pbc="F F F"
Ac       0.00000000       0.00000000       0.00000000       0.00000000       0.00000000     -31.83643532
Ac       0.00000000       0.00000000       1.23232323       0.00000000       0.00000000      31.83643532
2
Properties=species:S:1:pos:R:3:forces:R:3 energy=105.15572572902532 pbc="F F F"
Ac       0.00000000       0.00000000       0.00000000       0.00000000       0.00000000    -122.05439758
Ac       0.00000000       0.00000000       1.29191919       0.00000000       0.00000000     122.05439758
2
Properties=species:S:1:pos:R:3:forces:R:3 energy=96.85239765509363 pbc="F F F"
Ac       0.00000000       0.00000000       0.00000000       0.00000000       0.00000000    -153.16444397
Ac       0.00000000       0.00000000       1.35151515       0.00000000       0.00000000     153.16444397
2
Properties=species:S:1:pos:R:3:forces:R:3 energy=87.24417642963438 pbc="F F F"
Ac       0.00000000       0.00000000       0.00000000       0.00000000       0.00000000    -168.02648926
Ac       0.00000000       0.00000000       1.41111111       0.00000000       0.00000000     168.02648926
2
Properties=species:S:1:pos:R:3:forces:R:3 energy=76.92835219308039 pbc="F F F"
Ac       0.00000000       0.00000000       0.00000000       0.00000000       0.00000000    -176.99447632
Ac       0.00000000       0.00000000       1.47070707       0.00000000       0.00000000     176.99447632
2
Properties=species:S:1:pos:R:3:forces:R:3 energy=66.33909859277247 pbc="F F F"
Ac       0.00000000       0.00000000       0.00000000       0.00000000       0.00000000    -176.56111145
Ac       0.00000000       0.00000000       1.53030303       0.00000000       0.00000000     176.56111145
2
Properties=species:S:1:pos:R:3:forces:R:3 energy=56.08189210947548 pbc="F F F"
Ac       0.00000000       0.00000000       0.00000000       0.00000000       0.00000000    -166.30497742
Ac       0.00000000       0.00000000       1.58989899       0.00000000       0.00000000     166.30497742
2
Properties=species:S:1:pos:R:3:forces:R:3 energy=46.636080086234905 pbc="F F F"
Ac       0.00000000       0.00000000       0.00000000       0.00000000       0.00000000    -150.01068115
Ac       0.00000000       0.00000000       1.64949495       0.00000000       0.00000000     150.01068115
2
Properties=species:S:1:pos:R:3:forces:R:3 energy=38.25218143592046 pbc="F F F"
Ac       0.00000000       0.00000000       0.00000000       0.00000000       0.00000000    -131.15562439
Ac       0.00000000       0.00000000       1.70909091       0.00000000       0.00000000     131.15562439
2
Properties=species:S:1:pos:R:3:forces:R:3 energy=31.002753747257163 pbc="F F F"
Ac       0.00000000       0.00000000       0.00000000       0.00000000       0.00000000    -112.29544067
Ac       0.00000000       0.00000000       1.76868687       0.00000000       0.00000000     112.29544067
2
Properties=species:S:1:pos:R:3:forces:R:3 energy=24.836794669859053 pbc="F F F"
Ac       0.00000000       0.00000000       0.00000000       0.00000000       0.00000000     -94.93180847
Ac       0.00000000       0.00000000       1.82828283       0.00000000       0.00000000      94.93180847
2
Properties=species:S:1:pos:R:3:forces:R:3 energy=19.652293704880616 pbc="F F F"
Ac       0.00000000       0.00000000       0.00000000       0.00000000       0.00000000     -79.33586121
Ac       0.00000000       0.00000000       1.88787879       0.00000000       0.00000000      79.33586121
2
Properties=species:S:1:pos:R:3:forces:R:3 energy=15.348850067023417 pbc="F F F"
Ac       0.00000000       0.00000000       0.00000000       0.00000000       0.00000000     -65.35186768
Ac       0.00000000       0.00000000       1.94747475       0.00000000       0.00000000      65.35186768
2
Properties=species:S:1:pos:R:3:forces:R:3 energy=11.828648483431094 pbc="F F F"
Ac       0.00000000       0.00000000       0.00000000       0.00000000       0.00000000     -53.09772873
Ac       0.00000000       0.00000000       2.00707071       0.00000000       0.00000000      53.09772873
2
Properties=species:S:1:pos:R:3:forces:R:3 energy=8.979949120567309 pbc="F F F"
Ac       0.00000000       0.00000000       0.00000000       0.00000000       0.00000000     -42.85029221
Ac       0.00000000       0.00000000       2.06666667       0.00000000       0.00000000      42.85029221
2
Properties=species:S:1:pos:R:3:forces:R:3 energy=6.680836427268381 pbc="F F F"
Ac       0.00000000       0.00000000       0.00000000       0.00000000       0.00000000     -34.62548828
Ac       0.00000000       0.00000000       2.12626263       0.00000000       0.00000000      34.62548828
2
Properties=species:S:1:pos:R:3:forces:R:3 energy=4.818617372518723 pbc="F F F"
Ac       0.00000000       0.00000000       0.00000000       0.00000000       0.00000000     -28.12138939
Ac       0.00000000       0.00000000       2.18585859       0.00000000       0.00000000      28.12138939
2
Properties=species:S:1:pos:R:3:forces:R:3 energy=3.3032879050059667 pbc="F F F"
Ac       0.00000000       0.00000000       0.00000000       0.00000000       0.00000000     -22.91281891
Ac       0.00000000       0.00000000       2.24545455       0.00000000       0.00000000      22.91281891
2
Properties=species:S:1:pos:R:3:forces:R:3 energy=2.06951547729802 pbc="F F F"
Ac       0.00000000       0.00000000       0.00000000       0.00000000       0.00000000     -18.61832237
Ac       0.00000000       0.00000000       2.30505051       0.00000000       0.00000000      18.61832237
2
Properties=species:S:1:pos:R:3:forces:R:3 energy=1.0711209998852227 pbc="F F F"
Ac       0.00000000       0.00000000       0.00000000       0.00000000       0.00000000     -14.98415661
Ac       0.00000000       0.00000000       2.36464646       0.00000000       0.00000000      14.98415661
2
Properties=species:S:1:pos:R:3:forces:R:3 energy=0.27261455688613184 pbc="F F F"
Ac       0.00000000       0.00000000       0.00000000       0.00000000       0.00000000     -11.90211296
Ac       0.00000000       0.00000000       2.42424242       0.00000000       0.00000000      11.90211296
2
Properties=species:S:1:pos:R:3:forces:R:3 energy=-0.3580553938672967 pbc="F F F"
Ac       0.00000000       0.00000000       0.00000000       0.00000000       0.00000000      -9.35043812
Ac       0.00000000       0.00000000       2.48383838       0.00000000       0.00000000       9.35043812
2
Properties=species:S:1:pos:R:3:forces:R:3 energy=-0.8520021235676303 pbc="F F F"
Ac       0.00000000       0.00000000       0.00000000       0.00000000       0.00000000      -7.30679131
Ac       0.00000000       0.00000000       2.54343434       0.00000000       0.00000000       7.30679131
2
Properties=species:S:1:pos:R:3:forces:R:3 energy=-1.237854650337333 pbc="F F F"
Ac       0.00000000       0.00000000       0.00000000       0.00000000       0.00000000      -5.70969343
Ac       0.00000000       0.00000000       2.60303030       0.00000000       0.00000000       5.70969343
2
Properties=species:S:1:pos:R:3:forces:R:3 energy=-1.5396748295745135 pbc="F F F"
Ac       0.00000000       0.00000000       0.00000000       0.00000000       0.00000000      -4.47122431
Ac       0.00000000       0.00000000       2.66262626       0.00000000       0.00000000       4.47122431
2
Properties=species:S:1:pos:R:3:forces:R:3 energy=-1.7761427372727774 pbc="F F F"
Ac       0.00000000       0.00000000       0.00000000       0.00000000       0.00000000      -3.50275803
Ac       0.00000000       0.00000000       2.72222222       0.00000000       0.00000000       3.50275803
2
Properties=species:S:1:pos:R:3:forces:R:3 energy=-1.9610956659044434 pbc="F F F"
Ac       0.00000000       0.00000000       0.00000000       0.00000000       0.00000000      -2.73246837
Ac       0.00000000       0.00000000       2.78181818       0.00000000       0.00000000       2.73246837
2
Properties=species:S:1:pos:R:3:forces:R:3 energy=-2.104797627326526 pbc="F F F"
Ac       0.00000000       0.00000000       0.00000000       0.00000000       0.00000000      -2.11231399
Ac       0.00000000       0.00000000       2.84141414       0.00000000       0.00000000       2.11231399
2
Properties=species:S:1:pos:R:3:forces:R:3 energy=-2.2152891037134723 pbc="F F F"
Ac       0.00000000       0.00000000       0.00000000       0.00000000       0.00000000      -1.61441815
Ac       0.00000000       0.00000000       2.90101010       0.00000000       0.00000000       1.61441815
2
Properties=species:S:1:pos:R:3:forces:R:3 energy=-2.299273581700975 pbc="F F F"
Ac       0.00000000       0.00000000       0.00000000       0.00000000       0.00000000      -1.21970832
Ac       0.00000000       0.00000000       2.96060606       0.00000000       0.00000000       1.21970832
2
Properties=species:S:1:pos:R:3:forces:R:3 energy=-2.3623346705161095 pbc="F F F"
Ac       0.00000000       0.00000000       0.00000000       0.00000000       0.00000000      -0.90886402
Ac       0.00000000       0.00000000       3.02020202       0.00000000       0.00000000       0.90886402
2
Properties=species:S:1:pos:R:3:forces:R:3 energy=-2.408852759676745 pbc="F F F"
Ac       0.00000000       0.00000000       0.00000000       0.00000000       0.00000000      -0.66103917
Ac       0.00000000       0.00000000       3.07979798       0.00000000       0.00000000       0.66103917
2
Properties=species:S:1:pos:R:3:forces:R:3 energy=-2.442004917125352 pbc="F F F"
Ac       0.00000000       0.00000000       0.00000000       0.00000000       0.00000000      -0.45755309
Ac       0.00000000       0.00000000       3.13939394       0.00000000       0.00000000       0.45755309
2
Properties=species:S:1:pos:R:3:forces:R:3 energy=-2.463999361726145 pbc="F F F"
Ac       0.00000000       0.00000000       0.00000000       0.00000000       0.00000000      -0.28491843
Ac       0.00000000       0.00000000       3.19898990       0.00000000       0.00000000       0.28491843
2
Properties=species:S:1:pos:R:3:forces:R:3 energy=-2.476405051112227 pbc="F F F"
Ac       0.00000000       0.00000000       0.00000000       0.00000000       0.00000000      -0.13461502
Ac       0.00000000       0.00000000       3.25858586       0.00000000       0.00000000       0.13461502
2
Properties=species:S:1:pos:R:3:forces:R:3 energy=-2.4803743979805306 pbc="F F F"
Ac       0.00000000       0.00000000       0.00000000       0.00000000       0.00000000      -0.00091986
Ac       0.00000000       0.00000000       3.31818182       0.00000000       0.00000000       0.00091986
2
Properties=species:S:1:pos:R:3:forces:R:3 energy=-2.476751778223788 pbc="F F F"
Ac       0.00000000       0.00000000       0.00000000       0.00000000       0.00000000       0.12083511
Ac       0.00000000       0.00000000       3.37777778       0.00000000       0.00000000      -0.12083511
2
Properties=species:S:1:pos:R:3:forces:R:3 energy=-2.466134302325626 pbc="F F F"
Ac       0.00000000       0.00000000       0.00000000       0.00000000       0.00000000       0.23435003
Ac       0.00000000       0.00000000       3.43737374       0.00000000       0.00000000      -0.23435003
2
Properties=species:S:1:pos:R:3:forces:R:3 energy=-2.4489433512696825 pbc="F F F"
Ac       0.00000000       0.00000000       0.00000000       0.00000000       0.00000000       0.34153068
Ac       0.00000000       0.00000000       3.49696970       0.00000000       0.00000000      -0.34153068
2
Properties=species:S:1:pos:R:3:forces:R:3 energy=-2.4255606778703083 pbc="F F F"
Ac       0.00000000       0.00000000       0.00000000       0.00000000       0.00000000       0.44191301
Ac       0.00000000       0.00000000       3.55656566       0.00000000       0.00000000      -0.44191301
2
Properties=species:S:1:pos:R:3:forces:R:3 energy=-2.396451506787117 pbc="F F F"
Ac       0.00000000       0.00000000       0.00000000       0.00000000       0.00000000       0.53315932
Ac       0.00000000       0.00000000       3.61616162       0.00000000       0.00000000      -0.53315932
2
Properties=species:S:1:pos:R:3:forces:R:3 energy=-2.362250626638715 pbc="F F F"
Ac       0.00000000       0.00000000       0.00000000       0.00000000       0.00000000       0.61245912
Ac       0.00000000       0.00000000       3.67575758       0.00000000       0.00000000      -0.61245912
2
Properties=species:S:1:pos:R:3:forces:R:3 energy=-2.323726703243566 pbc="F F F"
Ac       0.00000000       0.00000000       0.00000000       0.00000000       0.00000000       0.67802966
Ac       0.00000000       0.00000000       3.73535354       0.00000000       0.00000000      -0.67802966
2
Properties=species:S:1:pos:R:3:forces:R:3 energy=-2.2817070660618795 pbc="F F F"
Ac       0.00000000       0.00000000       0.00000000       0.00000000       0.00000000       0.72989839
Ac       0.00000000       0.00000000       3.79494949       0.00000000       0.00000000      -0.72989839
2
Properties=species:S:1:pos:R:3:forces:R:3 energy=-2.236970681260271 pbc="F F F"
Ac       0.00000000       0.00000000       0.00000000       0.00000000       0.00000000       0.76960176
Ac       0.00000000       0.00000000       3.85454545       0.00000000       0.00000000      -0.76960176
2
Properties=species:S:1:pos:R:3:forces:R:3 energy=-2.190176653816511 pbc="F F F"
Ac       0.00000000       0.00000000       0.00000000       0.00000000       0.00000000       0.79926658
Ac       0.00000000       0.00000000       3.91414141       0.00000000       0.00000000      -0.79926658
2
Properties=species:S:1:pos:R:3:forces:R:3 energy=-2.1418676644140353 pbc="F F F"
Ac       0.00000000       0.00000000       0.00000000       0.00000000       0.00000000       0.82066685
Ac       0.00000000       0.00000000       3.97373737       0.00000000       0.00000000      -0.82066685
2
Properties=species:S:1:pos:R:3:forces:R:3 energy=-2.0925026276195924 pbc="F F F"
Ac       0.00000000       0.00000000       0.00000000       0.00000000       0.00000000       0.83486223
Ac       0.00000000       0.00000000       4.03333333       0.00000000       0.00000000      -0.83486223
2
Properties=species:S:1:pos:R:3:forces:R:3 energy=-2.0424910725078833 pbc="F F F"
Ac       0.00000000       0.00000000       0.00000000       0.00000000       0.00000000       0.84241027
Ac       0.00000000       0.00000000       4.09292929       0.00000000       0.00000000      -0.84241027
2
Properties=species:S:1:pos:R:3:forces:R:3 energy=-1.9922146153408729 pbc="F F F"
Ac       0.00000000       0.00000000       0.00000000       0.00000000       0.00000000       0.84389371
Ac       0.00000000       0.00000000       4.15252525       0.00000000       0.00000000      -0.84389371
2
Properties=species:S:1:pos:R:3:forces:R:3 energy=-1.942006486080257 pbc="F F F"
Ac       0.00000000       0.00000000       0.00000000       0.00000000       0.00000000       0.84036499
Ac       0.00000000       0.00000000       4.21212121       0.00000000       0.00000000      -0.84036499
2
Properties=species:S:1:pos:R:3:forces:R:3 energy=-1.8921174218593624 pbc="F F F"
Ac       0.00000000       0.00000000       0.00000000       0.00000000       0.00000000       0.83342087
Ac       0.00000000       0.00000000       4.27171717       0.00000000       0.00000000      -0.83342087
2
Properties=species:S:1:pos:R:3:forces:R:3 energy=-1.8426977804220221 pbc="F F F"
Ac       0.00000000       0.00000000       0.00000000       0.00000000       0.00000000       0.82503206
Ac       0.00000000       0.00000000       4.33131313       0.00000000       0.00000000      -0.82503206
2
Properties=species:S:1:pos:R:3:forces:R:3 energy=-1.7937698887350915 pbc="F F F"
Ac       0.00000000       0.00000000       0.00000000       0.00000000       0.00000000       0.81717855
Ac       0.00000000       0.00000000       4.39090909       0.00000000       0.00000000      -0.81717855
2
Properties=species:S:1:pos:R:3:forces:R:3 energy=-1.7452521941249766 pbc="F F F"
Ac       0.00000000       0.00000000       0.00000000       0.00000000       0.00000000       0.81150508
Ac       0.00000000       0.00000000       4.45050505       0.00000000       0.00000000      -0.81150508
2
Properties=species:S:1:pos:R:3:forces:R:3 energy=-1.6969817821620714 pbc="F F F"
Ac       0.00000000       0.00000000       0.00000000       0.00000000       0.00000000       0.80901569
Ac       0.00000000       0.00000000       4.51010101       0.00000000       0.00000000      -0.80901569
2
Properties=species:S:1:pos:R:3:forces:R:3 energy=-1.6487557854657897 pbc="F F F"
Ac       0.00000000       0.00000000       0.00000000       0.00000000       0.00000000       0.80990642
Ac       0.00000000       0.00000000       4.56969697       0.00000000       0.00000000      -0.80990642
2
Properties=species:S:1:pos:R:3:forces:R:3 energy=-1.600392966558012 pbc="F F F"
Ac       0.00000000       0.00000000       0.00000000       0.00000000       0.00000000       0.81346536
Ac       0.00000000       0.00000000       4.62929293       0.00000000       0.00000000      -0.81346536
2
Properties=species:S:1:pos:R:3:forces:R:3 energy=-1.5517754284431406 pbc="F F F"
Ac       0.00000000       0.00000000       0.00000000       0.00000000       0.00000000       0.81818581
Ac       0.00000000       0.00000000       4.68888889       0.00000000       0.00000000      -0.81818581
2
Properties=species:S:1:pos:R:3:forces:R:3 energy=-1.502887809121784 pbc="F F F"
Ac       0.00000000       0.00000000       0.00000000       0.00000000       0.00000000       0.82209396
Ac       0.00000000       0.00000000       4.74848485       0.00000000       0.00000000      -0.82209396
2
Properties=species:S:1:pos:R:3:forces:R:3 energy=-1.453841688984846 pbc="F F F"
Ac       0.00000000       0.00000000       0.00000000       0.00000000       0.00000000       0.82334059
Ac       0.00000000       0.00000000       4.80808081       0.00000000       0.00000000      -0.82334059
2
Properties=species:S:1:pos:R:3:forces:R:3 energy=-1.4048253351784883 pbc="F F F"
Ac       0.00000000       0.00000000       0.00000000       0.00000000       0.00000000       0.82096630
Ac       0.00000000       0.00000000       4.86767677       0.00000000       0.00000000      -0.82096630
2
Properties=species:S:1:pos:R:3:forces:R:3 energy=-1.3560460169792785 pbc="F F F"
Ac       0.00000000       0.00000000       0.00000000       0.00000000       0.00000000       0.81569177
Ac       0.00000000       0.00000000       4.92727273       0.00000000       0.00000000      -0.81569177
2
Properties=species:S:1:pos:R:3:forces:R:3 energy=-1.3076047231665149 pbc="F F F"
Ac       0.00000000       0.00000000       0.00000000       0.00000000       0.00000000       0.81026179
Ac       0.00000000       0.00000000       4.98686869       0.00000000       0.00000000      -0.81026179
2
Properties=species:S:1:pos:R:3:forces:R:3 energy=-1.2593934859780105 pbc="F F F"
Ac       0.00000000       0.00000000       0.00000000       0.00000000       0.00000000       0.80892372
Ac       0.00000000       0.00000000       5.04646465       0.00000000       0.00000000      -0.80892372
2
Properties=species:S:1:pos:R:3:forces:R:3 energy=-1.211027249249316 pbc="F F F"
Ac       0.00000000       0.00000000       0.00000000       0.00000000       0.00000000       0.81575316
Ac       0.00000000       0.00000000       5.10606061       0.00000000       0.00000000      -0.81575316
2
Properties=species:S:1:pos:R:3:forces:R:3 energy=-1.1619750873312455 pbc="F F F"
Ac       0.00000000       0.00000000       0.00000000       0.00000000       0.00000000       0.83132356
Ac       0.00000000       0.00000000       5.16565657       0.00000000       0.00000000      -0.83132356
2
Properties=species:S:1:pos:R:3:forces:R:3 energy=-1.1119008798968373 pbc="F F F"
Ac       0.00000000       0.00000000       0.00000000       0.00000000       0.00000000       0.84827757
Ac       0.00000000       0.00000000       5.22525253       0.00000000       0.00000000      -0.84827757
2
Properties=species:S:1:pos:R:3:forces:R:3 energy=-1.0611943639837227 pbc="F F F"
Ac       0.00000000       0.00000000       0.00000000       0.00000000       0.00000000       0.84886485
Ac       0.00000000       0.00000000       5.28484848       0.00000000       0.00000000      -0.84886485
2
Properties=species:S:1:pos:R:3:forces:R:3 energy=-1.0114278158629069 pbc="F F F"
Ac       0.00000000       0.00000000       0.00000000       0.00000000       0.00000000       0.81516004
Ac       0.00000000       0.00000000       5.34444444       0.00000000       0.00000000      -0.81516004
2
Properties=species:S:1:pos:R:3:forces:R:3 energy=-0.9643892219348469 pbc="F F F"
Ac       0.00000000       0.00000000       0.00000000       0.00000000       0.00000000       0.76573694
Ac       0.00000000       0.00000000       5.40404040       0.00000000       0.00000000      -0.76573694
2
Properties=species:S:1:pos:R:3:forces:R:3 energy=-0.9191278616375147 pbc="F F F"
Ac       0.00000000       0.00000000       0.00000000       0.00000000       0.00000000       0.76469475
Ac       0.00000000       0.00000000       5.46363636       0.00000000       0.00000000      -0.76469475
2
Properties=species:S:1:pos:R:3:forces:R:3 energy=-0.8725161344924054 pbc="F F F"
Ac       0.00000000       0.00000000       0.00000000       0.00000000       0.00000000       0.79621547
Ac       0.00000000       0.00000000       5.52323232       0.00000000       0.00000000      -0.79621547
2
Properties=species:S:1:pos:R:3:forces:R:3 energy=-0.8258164194792904 pbc="F F F"
Ac       0.00000000       0.00000000       0.00000000       0.00000000       0.00000000       0.75456572
Ac       0.00000000       0.00000000       5.58282828       0.00000000       0.00000000      -0.75456572
2
Properties=species:S:1:pos:R:3:forces:R:3 energy=-0.7838146138184537 pbc="F F F"
Ac       0.00000000       0.00000000       0.00000000       0.00000000       0.00000000       0.65458804
Ac       0.00000000       0.00000000       5.64242424       0.00000000       0.00000000      -0.65458804
2
Properties=species:S:1:pos:R:3:forces:R:3 energy=-0.7463446542586537 pbc="F F F"
Ac       0.00000000       0.00000000       0.00000000       0.00000000       0.00000000       0.62600178
Ac       0.00000000       0.00000000       5.70202020       0.00000000       0.00000000      -0.62600178
2
Properties=species:S:1:pos:R:3:forces:R:3 energy=-0.7062059042781416 pbc="F F F"
Ac       0.00000000       0.00000000       0.00000000       0.00000000       0.00000000       0.73550111
Ac       0.00000000       0.00000000       5.76161616       0.00000000       0.00000000      -0.73550111
2
Properties=species:S:1:pos:R:3:forces:R:3 energy=-0.6605195193477635 pbc="F F F"
Ac       0.00000000       0.00000000       0.00000000       0.00000000       0.00000000       0.75360811
Ac       0.00000000       0.00000000       5.82121212       0.00000000       0.00000000      -0.75360811
2
Properties=species:S:1:pos:R:3:forces:R:3 energy=-0.6223180716795984 pbc="F F F"
Ac       0.00000000       0.00000000       0.00000000       0.00000000       0.00000000       0.49576798
Ac       0.00000000       0.00000000       5.88080808       0.00000000       0.00000000      -0.49576798
2
Properties=species:S:1:pos:R:3:forces:R:3 energy=-0.6026369974991496 pbc="F F F"
Ac       0.00000000       0.00000000       0.00000000       0.00000000       0.00000000       0.17172945
Ac       0.00000000       0.00000000       5.94040404       0.00000000       0.00000000      -0.17172945
2
Properties=species:S:1:pos:R:3:forces:R:3 energy=-0.5978550879299225 pbc="F F F"
Ac       0.00000000       0.00000000       0.00000000       0.00000000       0.00000000       0.03497398
Ac       0.00000000       0.00000000       6.00000000       0.00000000       0.00000000      -0.03497398
