2
Properties=species:S:1:pos:R:3:forces:R:3 energy=8332.379947242398 pbc="F F F"
Ag       0.00000000       0.00000000       0.00000000       0.00000000       0.00000000 -131510.81250000
Ag       0.00000000       0.00000000       0.18000000       0.00000000       0.00000000  131510.81250000
2
Properties=species:S:1:pos:R:3:forces:R:3 energy=3649.052310523647 pbc="F F F"
Ag       0.00000000       0.00000000       0.00000000       0.00000000       0.00000000  -45534.98828125
Ag       0.00000000       0.00000000       0.23878788       0.00000000       0.00000000   45534.98828125
2
Properties=species:S:1:pos:R:3:forces:R:3 energy=1897.893130836147 pbc="F F F"
Ag       0.00000000       0.00000000       0.00000000       0.00000000       0.00000000  -18643.23632812
Ag       0.00000000       0.00000000       0.29757576       0.00000000       0.00000000   18643.23632812
2
Properties=species:S:1:pos:R:3:forces:R:3 energy=1142.9917636518148 pbc="F F F"
Ag       0.00000000       0.00000000       0.00000000       0.00000000       0.00000000   -8551.71484375
Ag       0.00000000       0.00000000       0.35636364       0.00000000       0.00000000    8551.71484375
2
Properties=species:S:1:pos:R:3:forces:R:3 energy=781.0163608261192 pbc="F F F"
Ag       0.00000000       0.00000000       0.00000000       0.00000000       0.00000000   -4342.60644531
Ag       0.00000000       0.00000000       0.41515152       0.00000000       0.00000000    4342.60644531
2
Properties=species:S:1:pos:R:3:forces:R:3 energy=588.8186679708647 pbc="F F F"
Ag       0.00000000       0.00000000       0.00000000       0.00000000       0.00000000   -2411.94799805
Ag       0.00000000       0.00000000       0.47393939       0.00000000       0.00000000    2411.94799805
2
Properties=species:S:1:pos:R:3:forces:R:3 energy=479.4947239075782 pbc="F F F"
Ag       0.00000000       0.00000000       0.00000000       0.00000000       0.00000000   -1449.40197754
Ag       0.00000000       0.00000000       0.53272727       0.00000000       0.00000000    1449.40197754
2
Properties=species:S:1:pos:R:3:forces:R:3 energy=405.9266087207205 pbc="F F F"
Ag       0.00000000       0.00000000       0.00000000       0.00000000       0.00000000   -1115.60900879
Ag       0.00000000       0.00000000       0.59151515       0.00000000       0.00000000    1115.60900879
2
Properties=species:S:1:pos:R:3:forces:R:3 energy=343.62570548277137 pbc="F F F"
Ag       0.00000000       0.00000000       0.00000000       0.00000000       0.00000000   -1029.84667969
Ag       0.00000000       0.00000000       0.65030303       0.00000000       0.00000000    1029.84667969
2
Properties=species:S:1:pos:R:3:forces:R:3 energy=283.2136572696405 pbc="F F F"
Ag       0.00000000       0.00000000       0.00000000       0.00000000       0.00000000   -1025.50939941
Ag       0.00000000       0.00000000       0.70909091       0.00000000       0.00000000    1025.50939941
2
Properties=species:S:1:pos:R:3:forces:R:3 energy=223.91299828635798 pbc="F F F"
Ag       0.00000000       0.00000000       0.00000000       0.00000000       0.00000000    -986.89312744
Ag       0.00000000       0.00000000       0.76787879       0.00000000       0.00000000     986.89312744
2
Properties=species:S:1:pos:R:3:forces:R:3 energy=167.99945487345792 pbc="F F F"
Ag       0.00000000       0.00000000       0.00000000       0.00000000       0.00000000    -899.49658203
Ag       0.00000000       0.00000000       0.82666667       0.00000000       0.00000000     899.49658203
2
Properties=species:S:1:pos:R:3:forces:R:3 energy=121.48473055066167 pbc="F F F"
Ag       0.00000000       0.00000000       0.00000000       0.00000000       0.00000000    -665.42974854
Ag       0.00000000       0.00000000       0.88545455       0.00000000       0.00000000     665.42974854
2
Properties=species:S:1:pos:R:3:forces:R:3 energy=89.11257689136546 pbc="F F F"
Ag       0.00000000       0.00000000       0.00000000       0.00000000       0.00000000    -444.01391602
Ag       0.00000000       0.00000000       0.94424242       0.00000000       0.00000000     444.01391602
2
Properties=species:S:1:pos:R:3:forces:R:3 energy=67.71203447043037 pbc="F F F"
Ag       0.00000000       0.00000000       0.00000000       0.00000000       0.00000000    -296.75845337
Ag       0.00000000       0.00000000       1.00303030       0.00000000       0.00000000     296.75845337
2
Properties=species:S:1:pos:R:3:forces:R:3 energy=53.300059683726374 pbc="F F F"
Ag       0.00000000       0.00000000       0.00000000       0.00000000       0.00000000    -199.62222290
Ag       0.00000000       0.00000000       1.06181818       0.00000000       0.00000000     199.62222290
2
Properties=species:S:1:pos:R:3:forces:R:3 energy=43.51971900402774 pbc="F F F"
Ag       0.00000000       0.00000000       0.00000000       0.00000000       0.00000000    -138.58380127
Ag       0.00000000       0.00000000       1.12060606       0.00000000       0.00000000     138.58380127
2
Properties=species:S:1:pos:R:3:forces:R:3 energy=36.538420512703254 pbc="F F F"
Ag       0.00000000       0.00000000       0.00000000       0.00000000       0.00000000    -101.59723663
Ag       0.00000000       0.00000000       1.17939394       0.00000000       0.00000000     101.59723663
2
Properties=species:S:1:pos:R:3:forces:R:3 energy=31.333424903890666 pbc="F F F"
Ag       0.00000000       0.00000000       0.00000000       0.00000000       0.00000000     -77.22950745
Ag       0.00000000       0.00000000       1.23818182       0.00000000       0.00000000      77.22950745
2
Properties=species:S:1:pos:R:3:forces:R:3 energy=27.268091755596803 pbc="F F F"
Ag       0.00000000       0.00000000       0.00000000       0.00000000       0.00000000     -62.52909470
Ag       0.00000000       0.00000000       1.29696970       0.00000000       0.00000000      62.52909470
2
Properties=species:S:1:pos:R:3:forces:R:3 energy=23.842768350992653 pbc="F F F"
Ag       0.00000000       0.00000000       0.00000000       0.00000000       0.00000000     -54.86505508
Ag       0.00000000       0.00000000       1.35575758       0.00000000       0.00000000      54.86505508
2
Properties=species:S:1:pos:R:3:forces:R:3 energy=20.747586995918255 pbc="F F F"
Ag       0.00000000       0.00000000       0.00000000       0.00000000       0.00000000     -50.83295441
Ag       0.00000000       0.00000000       1.41454545       0.00000000       0.00000000      50.83295441
2
Properties=species:S:1:pos:R:3:forces:R:3 energy=17.833263527153427 pbc="F F F"
Ag       0.00000000       0.00000000       0.00000000       0.00000000       0.00000000     -48.48773193
Ag       0.00000000       0.00000000       1.47333333       0.00000000       0.00000000      48.48773193
2
Properties=species:S:1:pos:R:3:forces:R:3 energy=15.038663831234645 pbc="F F F"
Ag       0.00000000       0.00000000       0.00000000       0.00000000       0.00000000     -46.55099487
Ag       0.00000000       0.00000000       1.53212121       0.00000000       0.00000000      46.55099487
2
Properties=species:S:1:pos:R:3:forces:R:3 energy=12.373265780111943 pbc="F F F"
Ag       0.00000000       0.00000000       0.00000000       0.00000000       0.00000000     -43.96380615
Ag       0.00000000       0.00000000       1.59090909       0.00000000       0.00000000      43.96380615
2
Properties=species:S:1:pos:R:3:forces:R:3 energy=9.890316169668514 pbc="F F F"
Ag       0.00000000       0.00000000       0.00000000       0.00000000       0.00000000     -40.33833313
Ag       0.00000000       0.00000000       1.64969697       0.00000000       0.00000000      40.33833313
2
Properties=species:S:1:pos:R:3:forces:R:3 energy=7.647350497698827 pbc="F F F"
Ag       0.00000000       0.00000000       0.00000000       0.00000000       0.00000000     -35.85703278
Ag       0.00000000       0.00000000       1.70848485       0.00000000       0.00000000      35.85703278
2
Properties=species:S:1:pos:R:3:forces:R:3 energy=5.683144578868837 pbc="F F F"
Ag       0.00000000       0.00000000       0.00000000       0.00000000       0.00000000     -30.92974854
Ag       0.00000000       0.00000000       1.76727273       0.00000000       0.00000000      30.92974854
2
Properties=species:S:1:pos:R:3:forces:R:3 energy=4.010967308430871 pbc="F F F"
Ag       0.00000000       0.00000000       0.00000000       0.00000000       0.00000000     -25.98798943
Ag       0.00000000       0.00000000       1.82606061       0.00000000       0.00000000      25.98798943
2
Properties=species:S:1:pos:R:3:forces:R:3 energy=2.6215076954410406 pbc="F F F"
Ag       0.00000000       0.00000000       0.00000000       0.00000000       0.00000000     -21.35022354
Ag       0.00000000       0.00000000       1.88484848       0.00000000       0.00000000      21.35022354
2
Properties=species:S:1:pos:R:3:forces:R:3 energy=1.4916062501378529 pbc="F F F"
Ag       0.00000000       0.00000000       0.00000000       0.00000000       0.00000000     -17.17394829
Ag       0.00000000       0.00000000       1.94363636       0.00000000       0.00000000      17.17394829
2
Properties=species:S:1:pos:R:3:forces:R:3 energy=0.5917325026707508 pbc="F F F"
Ag       0.00000000       0.00000000       0.00000000       0.00000000       0.00000000     -13.53371429
Ag       0.00000000       0.00000000       2.00242424       0.00000000       0.00000000      13.53371429
2
Properties=species:S:1:pos:R:3:forces:R:3 energy=-0.11073827590286932 pbc="F F F"
Ag       0.00000000       0.00000000       0.00000000       0.00000000       0.00000000     -10.45865440
Ag       0.00000000       0.00000000       2.06121212       0.00000000       0.00000000      10.45865440
2
Properties=species:S:1:pos:R:3:forces:R:3 energy=-0.6486329338760448 pbc="F F F"
Ag       0.00000000       0.00000000       0.00000000       0.00000000       0.00000000      -7.92754221
Ag       0.00000000       0.00000000       2.12000000       0.00000000       0.00000000       7.92754221
2
Properties=species:S:1:pos:R:3:forces:R:3 energy=-1.0523923836253197 pbc="F F F"
Ag       0.00000000       0.00000000       0.00000000       0.00000000       0.00000000      -5.88422441
Ag       0.00000000       0.00000000       2.17878788       0.00000000       0.00000000       5.88422441
2
Properties=species:S:1:pos:R:3:forces:R:3 energy=-1.3486732377985307 pbc="F F F"
Ag       0.00000000       0.00000000       0.00000000       0.00000000       0.00000000      -4.25918388
Ag       0.00000000       0.00000000       2.23757576       0.00000000       0.00000000       4.25918388
2
Properties=species:S:1:pos:R:3:forces:R:3 energy=-1.5599900636527586 pbc="F F F"
Ag       0.00000000       0.00000000       0.00000000       0.00000000       0.00000000      -2.98246503
Ag       0.00000000       0.00000000       2.29636364       0.00000000       0.00000000       2.98246503
2
Properties=species:S:1:pos:R:3:forces:R:3 energy=-1.704898433006267 pbc="F F F"
Ag       0.00000000       0.00000000       0.00000000       0.00000000       0.00000000      -1.98980677
Ag       0.00000000       0.00000000       2.35515152       0.00000000       0.00000000       1.98980677
2
Properties=species:S:1:pos:R:3:forces:R:3 energy=-1.7983982680376482 pbc="F F F"
Ag       0.00000000       0.00000000       0.00000000       0.00000000       0.00000000      -1.22475064
Ag       0.00000000       0.00000000       2.41393939       0.00000000       0.00000000       1.22475064
2
Properties=species:S:1:pos:R:3:forces:R:3 energy=-1.852412176983753 pbc="F F F"
Ag       0.00000000       0.00000000       0.00000000       0.00000000       0.00000000      -0.63925135
Ag       0.00000000       0.00000000       2.47272727       0.00000000       0.00000000       0.63925135
2
Properties=species:S:1:pos:R:3:forces:R:3 energy=-1.8762959806815716 pbc="F F F"
Ag       0.00000000       0.00000000       0.00000000       0.00000000       0.00000000      -0.19376740
Ag       0.00000000       0.00000000       2.53151515       0.00000000       0.00000000       0.19376740
2
Properties=species:S:1:pos:R:3:forces:R:3 energy=-1.877322387181767 pbc="F F F"
Ag       0.00000000       0.00000000       0.00000000       0.00000000       0.00000000       0.14291912
Ag       0.00000000       0.00000000       2.59030303       0.00000000       0.00000000      -0.14291912
2
Properties=species:S:1:pos:R:3:forces:R:3 energy=-1.8611545962733023 pbc="F F F"
Ag       0.00000000       0.00000000       0.00000000       0.00000000       0.00000000       0.39456692
Ag       0.00000000       0.00000000       2.64909091       0.00000000       0.00000000      -0.39456692
2
Properties=species:S:1:pos:R:3:forces:R:3 energy=-1.8322488319451256 pbc="F F F"
Ag       0.00000000       0.00000000       0.00000000       0.00000000       0.00000000       0.57880020
Ag       0.00000000       0.00000000       2.70787879       0.00000000       0.00000000      -0.57880020
2
Properties=species:S:1:pos:R:3:forces:R:3 energy=-1.7941676123053765 pbc="F F F"
Ag       0.00000000       0.00000000       0.00000000       0.00000000       0.00000000       0.70851427
Ag       0.00000000       0.00000000       2.76666667       0.00000000       0.00000000      -0.70851427
2
Properties=species:S:1:pos:R:3:forces:R:3 energy=-1.7498266940031766 pbc="F F F"
Ag       0.00000000       0.00000000       0.00000000       0.00000000       0.00000000       0.79312241
Ag       0.00000000       0.00000000       2.82545455       0.00000000       0.00000000      -0.79312241
2
Properties=species:S:1:pos:R:3:forces:R:3 energy=-1.7016613123300979 pbc="F F F"
Ag       0.00000000       0.00000000       0.00000000       0.00000000       0.00000000       0.83968574
Ag       0.00000000       0.00000000       2.88424242       0.00000000       0.00000000      -0.83968574
2
Properties=species:S:1:pos:R:3:forces:R:3 energy=-1.6517223279360511 pbc="F F F"
Ag       0.00000000       0.00000000       0.00000000       0.00000000       0.00000000       0.85457146
Ag       0.00000000       0.00000000       2.94303030       0.00000000       0.00000000      -0.85457146
2
Properties=species:S:1:pos:R:3:forces:R:3 energy=-1.6016416681205643 pbc="F F F"
Ag       0.00000000       0.00000000       0.00000000       0.00000000       0.00000000       0.84628105
Ag       0.00000000       0.00000000       3.00181818       0.00000000       0.00000000      -0.84628105
2
Properties=species:S:1:pos:R:3:forces:R:3 energy=-1.5524322610835082 pbc="F F F"
Ag       0.00000000       0.00000000       0.00000000       0.00000000       0.00000000       0.82713145
Ag       0.00000000       0.00000000       3.06060606       0.00000000       0.00000000      -0.82713145
2
Properties=species:S:1:pos:R:3:forces:R:3 energy=-1.5043890878417008 pbc="F F F"
Ag       0.00000000       0.00000000       0.00000000       0.00000000       0.00000000       0.80771232
Ag       0.00000000       0.00000000       3.11939394       0.00000000       0.00000000      -0.80771232
2
Properties=species:S:1:pos:R:3:forces:R:3 energy=-1.4574380369884632 pbc="F F F"
Ag       0.00000000       0.00000000       0.00000000       0.00000000       0.00000000       0.78945565
Ag       0.00000000       0.00000000       3.17818182       0.00000000       0.00000000      -0.78945565
2
Properties=species:S:1:pos:R:3:forces:R:3 energy=-1.4116242518913635 pbc="F F F"
Ag       0.00000000       0.00000000       0.00000000       0.00000000       0.00000000       0.76842624
Ag       0.00000000       0.00000000       3.23696970       0.00000000       0.00000000      -0.76842624
2
Properties=species:S:1:pos:R:3:forces:R:3 energy=-1.3671858782405706 pbc="F F F"
Ag       0.00000000       0.00000000       0.00000000       0.00000000       0.00000000       0.74260366
Ag       0.00000000       0.00000000       3.29575758       0.00000000       0.00000000      -0.74260366
2
Properties=species:S:1:pos:R:3:forces:R:3 energy=-1.3243920579045099 pbc="F F F"
Ag       0.00000000       0.00000000       0.00000000       0.00000000       0.00000000       0.71273047
Ag       0.00000000       0.00000000       3.35454545       0.00000000       0.00000000      -0.71273047
2
Properties=species:S:1:pos:R:3:forces:R:3 energy=-1.283434357244305 pbc="F F F"
Ag       0.00000000       0.00000000       0.00000000       0.00000000       0.00000000       0.68037868
Ag       0.00000000       0.00000000       3.41333333       0.00000000       0.00000000      -0.68037868
2
Properties=species:S:1:pos:R:3:forces:R:3 energy=-1.244417626582916 pbc="F F F"
Ag       0.00000000       0.00000000       0.00000000       0.00000000       0.00000000       0.64686853
Ag       0.00000000       0.00000000       3.47212121       0.00000000       0.00000000      -0.64686853
2
Properties=species:S:1:pos:R:3:forces:R:3 energy=-1.2073833441082433 pbc="F F F"
Ag       0.00000000       0.00000000       0.00000000       0.00000000       0.00000000       0.61309689
Ag       0.00000000       0.00000000       3.53090909       0.00000000       0.00000000      -0.61309689
2
Properties=species:S:1:pos:R:3:forces:R:3 energy=-1.172326316951189 pbc="F F F"
Ag       0.00000000       0.00000000       0.00000000       0.00000000       0.00000000       0.57964313
Ag       0.00000000       0.00000000       3.58969697       0.00000000       0.00000000      -0.57964313
2
Properties=species:S:1:pos:R:3:forces:R:3 energy=-1.139216995579231 pbc="F F F"
Ag       0.00000000       0.00000000       0.00000000       0.00000000       0.00000000       0.54689854
Ag       0.00000000       0.00000000       3.64848485       0.00000000       0.00000000      -0.54689854
2
Properties=species:S:1:pos:R:3:forces:R:3 energy=-1.10800529521437 pbc="F F F"
Ag       0.00000000       0.00000000       0.00000000       0.00000000       0.00000000       0.51513559
Ag       0.00000000       0.00000000       3.70727273       0.00000000       0.00000000      -0.51513559
2
Properties=species:S:1:pos:R:3:forces:R:3 energy=-1.0786265781689957 pbc="F F F"
Ag       0.00000000       0.00000000       0.00000000       0.00000000       0.00000000       0.48454145
Ag       0.00000000       0.00000000       3.76606061       0.00000000       0.00000000      -0.48454145
2
Properties=species:S:1:pos:R:3:forces:R:3 energy=-1.0510095208434145 pbc="F F F"
Ag       0.00000000       0.00000000       0.00000000       0.00000000       0.00000000       0.45524243
Ag       0.00000000       0.00000000       3.82484848       0.00000000       0.00000000      -0.45524243
2
Properties=species:S:1:pos:R:3:forces:R:3 energy=-1.0250745336709997 pbc="F F F"
Ag       0.00000000       0.00000000       0.00000000       0.00000000       0.00000000       0.42730156
Ag       0.00000000       0.00000000       3.88363636       0.00000000       0.00000000      -0.42730156
2
Properties=species:S:1:pos:R:3:forces:R:3 energy=-1.0007419066197907 pbc="F F F"
Ag       0.00000000       0.00000000       0.00000000       0.00000000       0.00000000       0.40074146
Ag       0.00000000       0.00000000       3.94242424       0.00000000       0.00000000      -0.40074146
2
Properties=species:S:1:pos:R:3:forces:R:3 energy=-0.97793045562876 pbc="F F F"
Ag       0.00000000       0.00000000       0.00000000       0.00000000       0.00000000       0.37554955
Ag       0.00000000       0.00000000       4.00121212       0.00000000       0.00000000      -0.37554955
2
Properties=species:S:1:pos:R:3:forces:R:3 energy=-0.9565603016034215 pbc="F F F"
Ag       0.00000000       0.00000000       0.00000000       0.00000000       0.00000000       0.35169929
Ag       0.00000000       0.00000000       4.06000000       0.00000000       0.00000000      -0.35169929
2
Properties=species:S:1:pos:R:3:forces:R:3 energy=-0.9365532787288524 pbc="F F F"
Ag       0.00000000       0.00000000       0.00000000       0.00000000       0.00000000       0.32916775
Ag       0.00000000       0.00000000       4.11878788       0.00000000       0.00000000      -0.32916775
2
Properties=species:S:1:pos:R:3:forces:R:3 energy=-0.9178323306717077 pbc="F F F"
Ag       0.00000000       0.00000000       0.00000000       0.00000000       0.00000000       0.30794317
Ag       0.00000000       0.00000000       4.17757576       0.00000000       0.00000000      -0.30794317
2
Properties=species:S:1:pos:R:3:forces:R:3 energy=-0.9003207048735344 pbc="F F F"
Ag       0.00000000       0.00000000       0.00000000       0.00000000       0.00000000       0.28803003
Ag       0.00000000       0.00000000       4.23636364       0.00000000       0.00000000      -0.28803003
2
Properties=species:S:1:pos:R:3:forces:R:3 energy=-0.8839407647936507 pbc="F F F"
Ag       0.00000000       0.00000000       0.00000000       0.00000000       0.00000000       0.26943865
Ag       0.00000000       0.00000000       4.29515152       0.00000000       0.00000000      -0.26943865
2
Properties=species:S:1:pos:R:3:forces:R:3 energy=-0.8686154540987115 pbc="F F F"
Ag       0.00000000       0.00000000       0.00000000       0.00000000       0.00000000       0.25217560
Ag       0.00000000       0.00000000       4.35393939       0.00000000       0.00000000      -0.25217560
2
Properties=species:S:1:pos:R:3:forces:R:3 energy=-0.8542660135111925 pbc="F F F"
Ag       0.00000000       0.00000000       0.00000000       0.00000000       0.00000000       0.23621030
Ag       0.00000000       0.00000000       4.41272727       0.00000000       0.00000000      -0.23621030
2
Properties=species:S:1:pos:R:3:forces:R:3 energy=-0.8408185499916039 pbc="F F F"
Ag       0.00000000       0.00000000       0.00000000       0.00000000       0.00000000       0.22147362
Ag       0.00000000       0.00000000       4.47151515       0.00000000       0.00000000      -0.22147362
2
Properties=species:S:1:pos:R:3:forces:R:3 energy=-0.8282042397270498 pbc="F F F"
Ag       0.00000000       0.00000000       0.00000000       0.00000000       0.00000000       0.20783488
Ag       0.00000000       0.00000000       4.53030303       0.00000000       0.00000000      -0.20783488
2
Properties=species:S:1:pos:R:3:forces:R:3 energy=-0.8163643585120389 pbc="F F F"
Ag       0.00000000       0.00000000       0.00000000       0.00000000       0.00000000       0.19510436
Ag       0.00000000       0.00000000       4.58909091       0.00000000       0.00000000      -0.19510436
2
Properties=species:S:1:pos:R:3:forces:R:3 energy=-0.8052518029588484 pbc="F F F"
Ag       0.00000000       0.00000000       0.00000000       0.00000000       0.00000000       0.18304808
Ag       0.00000000       0.00000000       4.64787879       0.00000000       0.00000000      -0.18304808
2
Properties=species:S:1:pos:R:3:forces:R:3 energy=-0.7948339857825416 pbc="F F F"
Ag       0.00000000       0.00000000       0.00000000       0.00000000       0.00000000       0.17141324
Ag       0.00000000       0.00000000       4.70666667       0.00000000       0.00000000      -0.17141324
2
Properties=species:S:1:pos:R:3:forces:R:3 energy=-0.7850937540452645 pbc="F F F"
Ag       0.00000000       0.00000000       0.00000000       0.00000000       0.00000000       0.15998071
Ag       0.00000000       0.00000000       4.76545455       0.00000000       0.00000000      -0.15998071
2
Properties=species:S:1:pos:R:3:forces:R:3 energy=-0.7760228833304745 pbc="F F F"
Ag       0.00000000       0.00000000       0.00000000       0.00000000       0.00000000       0.14861351
Ag       0.00000000       0.00000000       4.82424242       0.00000000       0.00000000      -0.14861351
2
Properties=species:S:1:pos:R:3:forces:R:3 energy=-0.7676195052397491 pbc="F F F"
Ag       0.00000000       0.00000000       0.00000000       0.00000000       0.00000000       0.13732177
Ag       0.00000000       0.00000000       4.88303030       0.00000000       0.00000000      -0.13732177
2
Properties=species:S:1:pos:R:3:forces:R:3 energy=-0.7598722788997874 pbc="F F F"
Ag       0.00000000       0.00000000       0.00000000       0.00000000       0.00000000       0.12629749
Ag       0.00000000       0.00000000       4.94181818       0.00000000       0.00000000      -0.12629749
2
Properties=species:S:1:pos:R:3:forces:R:3 energy=-0.7527565425870533 pbc="F F F"
Ag       0.00000000       0.00000000       0.00000000       0.00000000       0.00000000       0.11592450
Ag       0.00000000       0.00000000       5.00060606       0.00000000       0.00000000      -0.11592450
2
Properties=species:S:1:pos:R:3:forces:R:3 energy=-0.7462193535459127 pbc="F F F"
Ag       0.00000000       0.00000000       0.00000000       0.00000000       0.00000000       0.10671338
Ag       0.00000000       0.00000000       5.05939394       0.00000000       0.00000000      -0.10671338
2
Properties=species:S:1:pos:R:3:forces:R:3 energy=-0.7401769750900867 pbc="F F F"
Ag       0.00000000       0.00000000       0.00000000       0.00000000       0.00000000       0.09916025
Ag       0.00000000       0.00000000       5.11818182       0.00000000       0.00000000      -0.09916025
2
Properties=species:S:1:pos:R:3:forces:R:3 energy=-0.734523115298895 pbc="F F F"
Ag       0.00000000       0.00000000       0.00000000       0.00000000       0.00000000       0.09351379
Ag       0.00000000       0.00000000       5.17696970       0.00000000       0.00000000      -0.09351379
2
Properties=species:S:1:pos:R:3:forces:R:3 energy=-0.7291504765562175 pbc="F F F"
Ag       0.00000000       0.00000000       0.00000000       0.00000000       0.00000000       0.08947932
Ag       0.00000000       0.00000000       5.23575758       0.00000000       0.00000000      -0.08947932
2
Properties=species:S:1:pos:R:3:forces:R:3 energy=-0.7239912239364743 pbc="F F F"
Ag       0.00000000       0.00000000       0.00000000       0.00000000       0.00000000       0.08602099
Ag       0.00000000       0.00000000       5.29454545       0.00000000       0.00000000      -0.08602099
2
Properties=species:S:1:pos:R:3:forces:R:3 energy=-0.7190536901624714 pbc="F F F"
Ag       0.00000000       0.00000000       0.00000000       0.00000000       0.00000000       0.08171062
Ag       0.00000000       0.00000000       5.35333333       0.00000000       0.00000000      -0.08171062
2
Properties=species:S:1:pos:R:3:forces:R:3 energy=-0.7144056863048631 pbc="F F F"
Ag       0.00000000       0.00000000       0.00000000       0.00000000       0.00000000       0.07638232
Ag       0.00000000       0.00000000       5.41212121       0.00000000       0.00000000      -0.07638232
2
Properties=species:S:1:pos:R:3:forces:R:3 energy=-0.7100437424467797 pbc="F F F"
Ag       0.00000000       0.00000000       0.00000000       0.00000000       0.00000000       0.07247540
Ag       0.00000000       0.00000000       5.47090909       0.00000000       0.00000000      -0.07247540
2
Properties=species:S:1:pos:R:3:forces:R:3 energy=-0.7058502406488767 pbc="F F F"
Ag       0.00000000       0.00000000       0.00000000       0.00000000       0.00000000       0.07002047
Ag       0.00000000       0.00000000       5.52969697       0.00000000       0.00000000      -0.07002047
2
Properties=species:S:1:pos:R:3:forces:R:3 energy=-0.7018861254402717 pbc="F F F"
Ag       0.00000000       0.00000000       0.00000000       0.00000000       0.00000000       0.06399642
Ag       0.00000000       0.00000000       5.58848485       0.00000000       0.00000000      -0.06399642
2
Properties=species:S:1:pos:R:3:forces:R:3 energy=-0.6983984056682716 pbc="F F F"
Ag       0.00000000       0.00000000       0.00000000       0.00000000       0.00000000       0.05444708
Ag       0.00000000       0.00000000       5.64727273       0.00000000       0.00000000      -0.05444708
2
Properties=species:S:1:pos:R:3:forces:R:3 energy=-0.695446493188255 pbc="F F F"
Ag       0.00000000       0.00000000       0.00000000       0.00000000       0.00000000       0.04689185
Ag       0.00000000       0.00000000       5.70606061       0.00000000       0.00000000      -0.04689185
2
Properties=species:S:1:pos:R:3:forces:R:3 energy=-0.6927545730379618 pbc="F F F"
Ag       0.00000000       0.00000000       0.00000000       0.00000000       0.00000000       0.04526566
Ag       0.00000000       0.00000000       5.76484848       0.00000000       0.00000000      -0.04526566
2
Properties=species:S:1:pos:R:3:forces:R:3 energy=-0.6901718552493141 pbc="F F F"
Ag       0.00000000       0.00000000       0.00000000       0.00000000       0.00000000       0.04122943
Ag       0.00000000       0.00000000       5.82363636       0.00000000       0.00000000      -0.04122943
2
Properties=species:S:1:pos:R:3:forces:R:3 energy=-0.6881116315813217 pbc="F F F"
Ag       0.00000000       0.00000000       0.00000000       0.00000000       0.00000000       0.02780085
Ag       0.00000000       0.00000000       5.88242424       0.00000000       0.00000000      -0.02780085
2
Properties=species:S:1:pos:R:3:forces:R:3 energy=-0.6869222086830994 pbc="F F F"
Ag       0.00000000       0.00000000       0.00000000       0.00000000       0.00000000       0.01330486
Ag       0.00000000       0.00000000       5.94121212       0.00000000       0.00000000      -0.01330486
2
Properties=species:S:1:pos:R:3:forces:R:3 energy=-0.6863757449959167 pbc="F F F"
Ag       0.00000000       0.00000000       0.00000000       0.00000000       0.00000000       0.00717060
Ag       0.00000000       0.00000000       6.00000000       0.00000000       0.00000000      -0.00717060
