2
Properties=species:S:1:pos:R:3:forces:R:3 energy=38706.5000644299 pbc="F F F"
Ag       0.00000000       0.00000000       0.00000000       0.00000000       0.00000000 -917606.68750000
Ag       0.00000000       0.00000000       0.10000000       0.00000000       0.00000000  917606.68750000
2
Properties=species:S:1:pos:R:3:forces:R:3 energy=11667.401431617398 pbc="F F F"
Ag       0.00000000       0.00000000       0.00000000       0.00000000       0.00000000 -201320.42187500
Ag       0.00000000       0.00000000       0.15959596       0.00000000       0.00000000  201320.42187500
2
Properties=species:S:1:pos:R:3:forces:R:3 energy=4704.915591773647 pbc="F F F"
Ag       0.00000000       0.00000000       0.00000000       0.00000000       0.00000000  -63387.03125000
Ag       0.00000000       0.00000000       0.21919192       0.00000000       0.00000000   63387.03125000
2
Properties=species:S:1:pos:R:3:forces:R:3 energy=2299.904849586147 pbc="F F F"
Ag       0.00000000       0.00000000       0.00000000       0.00000000       0.00000000  -24456.37890625
Ag       0.00000000       0.00000000       0.27878788       0.00000000       0.00000000   24456.37890625
2
Properties=species:S:1:pos:R:3:forces:R:3 energy=1315.532779273647 pbc="F F F"
Ag       0.00000000       0.00000000       0.00000000       0.00000000       0.00000000  -10738.60351562
Ag       0.00000000       0.00000000       0.33838384       0.00000000       0.00000000   10738.60351562
2
Properties=species:S:1:pos:R:3:forces:R:3 energy=862.9472690260765 pbc="F F F"
Ag       0.00000000       0.00000000       0.00000000       0.00000000       0.00000000   -5235.16162109
Ag       0.00000000       0.00000000       0.39797980       0.00000000       0.00000000    5235.16162109
2
Properties=species:S:1:pos:R:3:forces:R:3 energy=631.6171909137478 pbc="F F F"
Ag       0.00000000       0.00000000       0.00000000       0.00000000       0.00000000   -2830.01855469
Ag       0.00000000       0.00000000       0.45757576       0.00000000       0.00000000    2830.01855469
2
Properties=species:S:1:pos:R:3:forces:R:3 energy=503.31607399573096 pbc="F F F"
Ag       0.00000000       0.00000000       0.00000000       0.00000000       0.00000000   -1621.92797852
Ag       0.00000000       0.00000000       0.51717172       0.00000000       0.00000000    1621.92797852
2
Properties=species:S:1:pos:R:3:forces:R:3 energy=422.740268376018 pbc="F F F"
Ag       0.00000000       0.00000000       0.00000000       0.00000000       0.00000000   -1167.28112793
Ag       0.00000000       0.00000000       0.57676768       0.00000000       0.00000000    1167.28112793
2
Properties=species:S:1:pos:R:3:forces:R:3 energy=358.02551624844443 pbc="F F F"
Ag       0.00000000       0.00000000       0.00000000       0.00000000       0.00000000   -1037.18395996
Ag       0.00000000       0.00000000       0.63636364       0.00000000       0.00000000    1037.18395996
2
Properties=species:S:1:pos:R:3:forces:R:3 energy=296.69845948405606 pbc="F F F"
Ag       0.00000000       0.00000000       0.00000000       0.00000000       0.00000000   -1027.82629395
Ag       0.00000000       0.00000000       0.69595960       0.00000000       0.00000000    1027.82629395
2
Properties=species:S:1:pos:R:3:forces:R:3 energy=236.14139179352816 pbc="F F F"
Ag       0.00000000       0.00000000       0.00000000       0.00000000       0.00000000    -997.37866211
Ag       0.00000000       0.00000000       0.75555556       0.00000000       0.00000000     997.37866211
2
Properties=species:S:1:pos:R:3:forces:R:3 energy=178.51196701396492 pbc="F F F"
Ag       0.00000000       0.00000000       0.00000000       0.00000000       0.00000000    -925.83605957
Ag       0.00000000       0.00000000       0.81515152       0.00000000       0.00000000     925.83605957
2
Properties=species:S:1:pos:R:3:forces:R:3 energy=128.85272668095078 pbc="F F F"
Ag       0.00000000       0.00000000       0.00000000       0.00000000       0.00000000    -711.19073486
Ag       0.00000000       0.00000000       0.87474747       0.00000000       0.00000000     711.19073486
2
Properties=species:S:1:pos:R:3:forces:R:3 energy=93.67107898092513 pbc="F F F"
Ag       0.00000000       0.00000000       0.00000000       0.00000000       0.00000000    -477.42065430
Ag       0.00000000       0.00000000       0.93434343       0.00000000       0.00000000     477.42065430
2
Properties=species:S:1:pos:R:3:forces:R:3 energy=70.49267398265152 pbc="F F F"
Ag       0.00000000       0.00000000       0.00000000       0.00000000       0.00000000    -315.14828491
Ag       0.00000000       0.00000000       0.99393939       0.00000000       0.00000000     315.14828491
2
Properties=species:S:1:pos:R:3:forces:R:3 energy=55.000369269249774 pbc="F F F"
Ag       0.00000000       0.00000000       0.00000000       0.00000000       0.00000000    -211.07806396
Ag       0.00000000       0.00000000       1.05353535       0.00000000       0.00000000     211.07806396
2
Properties=species:S:1:pos:R:3:forces:R:3 energy=44.57803407838673 pbc="F F F"
Ag       0.00000000       0.00000000       0.00000000       0.00000000       0.00000000    -144.64204407
Ag       0.00000000       0.00000000       1.11313131       0.00000000       0.00000000     144.64204407
2
Properties=species:S:1:pos:R:3:forces:R:3 energy=37.22714097824159 pbc="F F F"
Ag       0.00000000       0.00000000       0.00000000       0.00000000       0.00000000    -105.05348969
Ag       0.00000000       0.00000000       1.17272727       0.00000000       0.00000000     105.05348969
2
Properties=species:S:1:pos:R:3:forces:R:3 energy=31.79160410850274 pbc="F F F"
Ag       0.00000000       0.00000000       0.00000000       0.00000000       0.00000000     -79.19668579
Ag       0.00000000       0.00000000       1.23232323       0.00000000       0.00000000      79.19668579
2
Properties=species:S:1:pos:R:3:forces:R:3 energy=27.586244842337 pbc="F F F"
Ag       0.00000000       0.00000000       0.00000000       0.00000000       0.00000000     -63.46469879
Ag       0.00000000       0.00000000       1.29191919       0.00000000       0.00000000      63.46469879
2
Properties=species:S:1:pos:R:3:forces:R:3 energy=24.076359113922354 pbc="F F F"
Ag       0.00000000       0.00000000       0.00000000       0.00000000       0.00000000     -55.26274872
Ag       0.00000000       0.00000000       1.35151515       0.00000000       0.00000000      55.26274872
2
Properties=species:S:1:pos:R:3:forces:R:3 energy=20.922461938535452 pbc="F F F"
Ag       0.00000000       0.00000000       0.00000000       0.00000000       0.00000000     -51.00925446
Ag       0.00000000       0.00000000       1.41111111       0.00000000       0.00000000      51.00925446
2
Properties=species:S:1:pos:R:3:forces:R:3 energy=17.960717983900754 pbc="F F F"
Ag       0.00000000       0.00000000       0.00000000       0.00000000       0.00000000     -48.57442093
Ag       0.00000000       0.00000000       1.47070707       0.00000000       0.00000000      48.57442093
2
Properties=species:S:1:pos:R:3:forces:R:3 energy=15.123359393848913 pbc="F F F"
Ag       0.00000000       0.00000000       0.00000000       0.00000000       0.00000000     -46.61658096
Ag       0.00000000       0.00000000       1.53030303       0.00000000       0.00000000      46.61658096
2
Properties=species:S:1:pos:R:3:forces:R:3 energy=12.41770111014818 pbc="F F F"
Ag       0.00000000       0.00000000       0.00000000       0.00000000       0.00000000     -44.01698303
Ag       0.00000000       0.00000000       1.58989899       0.00000000       0.00000000      44.01698303
2
Properties=species:S:1:pos:R:3:forces:R:3 energy=9.898456692451669 pbc="F F F"
Ag       0.00000000       0.00000000       0.00000000       0.00000000       0.00000000     -40.35243225
Ag       0.00000000       0.00000000       1.64949495       0.00000000       0.00000000      40.35243225
2
Properties=species:S:1:pos:R:3:forces:R:3 energy=7.625633571885443 pbc="F F F"
Ag       0.00000000       0.00000000       0.00000000       0.00000000       0.00000000     -35.80773926
Ag       0.00000000       0.00000000       1.70909091       0.00000000       0.00000000      35.80773926
2
Properties=species:S:1:pos:R:3:forces:R:3 energy=5.6394896078491925 pbc="F F F"
Ag       0.00000000       0.00000000       0.00000000       0.00000000       0.00000000     -30.80947876
Ag       0.00000000       0.00000000       1.76868687       0.00000000       0.00000000      30.80947876
2
Properties=species:S:1:pos:R:3:forces:R:3 energy=3.9534221968737375 pbc="F F F"
Ag       0.00000000       0.00000000       0.00000000       0.00000000       0.00000000     -25.80573082
Ag       0.00000000       0.00000000       1.82828283       0.00000000       0.00000000      25.80573082
2
Properties=species:S:1:pos:R:3:forces:R:3 energy=2.5571564470424586 pbc="F F F"
Ag       0.00000000       0.00000000       0.00000000       0.00000000       0.00000000     -21.12285233
Ag       0.00000000       0.00000000       1.88787879       0.00000000       0.00000000      21.12285233
2
Properties=species:S:1:pos:R:3:forces:R:3 energy=1.4261760664740621 pbc="F F F"
Ag       0.00000000       0.00000000       0.00000000       0.00000000       0.00000000     -16.91934967
Ag       0.00000000       0.00000000       1.94747475       0.00000000       0.00000000      16.91934967
2
Properties=species:S:1:pos:R:3:forces:R:3 energy=0.5294610842519867 pbc="F F F"
Ag       0.00000000       0.00000000       0.00000000       0.00000000       0.00000000     -13.27007675
Ag       0.00000000       0.00000000       2.00707071       0.00000000       0.00000000      13.27007675
2
Properties=species:S:1:pos:R:3:forces:R:3 energy=-0.16708223830586122 pbc="F F F"
Ag       0.00000000       0.00000000       0.00000000       0.00000000       0.00000000     -10.20159721
Ag       0.00000000       0.00000000       2.06666667       0.00000000       0.00000000      10.20159721
2
Properties=species:S:1:pos:R:3:forces:R:3 energy=-0.6975276374795322 pbc="F F F"
Ag       0.00000000       0.00000000       0.00000000       0.00000000       0.00000000      -7.68781614
Ag       0.00000000       0.00000000       2.12626263       0.00000000       0.00000000       7.68781614
2
Properties=species:S:1:pos:R:3:forces:R:3 energy=-1.0932285042329464 pbc="F F F"
Ag       0.00000000       0.00000000       0.00000000       0.00000000       0.00000000      -5.66806126
Ag       0.00000000       0.00000000       2.18585859       0.00000000       0.00000000       5.66806126
2
Properties=species:S:1:pos:R:3:forces:R:3 energy=-1.3814765908050708 pbc="F F F"
Ag       0.00000000       0.00000000       0.00000000       0.00000000       0.00000000      -4.06935263
Ag       0.00000000       0.00000000       2.24545455       0.00000000       0.00000000       4.06935263
2
Properties=species:S:1:pos:R:3:forces:R:3 energy=-1.5851857513846204 pbc="F F F"
Ag       0.00000000       0.00000000       0.00000000       0.00000000       0.00000000      -2.81934714
Ag       0.00000000       0.00000000       2.30505051       0.00000000       0.00000000       2.81934714
2
Properties=species:S:1:pos:R:3:forces:R:3 energy=-1.7231338209263798 pbc="F F F"
Ag       0.00000000       0.00000000       0.00000000       0.00000000       0.00000000      -1.85218668
Ag       0.00000000       0.00000000       2.36464646       0.00000000       0.00000000       1.85218668
2
Properties=species:S:1:pos:R:3:forces:R:3 energy=-1.8104214768013192 pbc="F F F"
Ag       0.00000000       0.00000000       0.00000000       0.00000000       0.00000000      -1.11039174
Ag       0.00000000       0.00000000       2.42424242       0.00000000       0.00000000       1.11039174
2
Properties=species:S:1:pos:R:3:forces:R:3 energy=-1.8589891646262453 pbc="F F F"
Ag       0.00000000       0.00000000       0.00000000       0.00000000       0.00000000      -0.54538393
Ag       0.00000000       0.00000000       2.48383838       0.00000000       0.00000000       0.54538393
2
Properties=species:S:1:pos:R:3:forces:R:3 energy=-1.8781471774650755 pbc="F F F"
Ag       0.00000000       0.00000000       0.00000000       0.00000000       0.00000000      -0.11758319
Ag       0.00000000       0.00000000       2.54343434       0.00000000       0.00000000       0.11758319
2
Properties=species:S:1:pos:R:3:forces:R:3 energy=-1.8751109714074503 pbc="F F F"
Ag       0.00000000       0.00000000       0.00000000       0.00000000       0.00000000       0.20392019
Ag       0.00000000       0.00000000       2.60303030       0.00000000       0.00000000      -0.20392019
2
Properties=species:S:1:pos:R:3:forces:R:3 energy=-1.855486606163189 pbc="F F F"
Ag       0.00000000       0.00000000       0.00000000       0.00000000       0.00000000       0.44242415
Ag       0.00000000       0.00000000       2.66262626       0.00000000       0.00000000      -0.44242415
2
Properties=species:S:1:pos:R:3:forces:R:3 energy=-1.8236830203517607 pbc="F F F"
Ag       0.00000000       0.00000000       0.00000000       0.00000000       0.00000000       0.61506695
Ag       0.00000000       0.00000000       2.72222222       0.00000000       0.00000000      -0.61506695
2
Properties=species:S:1:pos:R:3:forces:R:3 energy=-1.7832336532556559 pbc="F F F"
Ag       0.00000000       0.00000000       0.00000000       0.00000000       0.00000000       0.73432177
Ag       0.00000000       0.00000000       2.78181818       0.00000000       0.00000000      -0.73432177
2
Properties=species:S:1:pos:R:3:forces:R:3 energy=-1.7370360087941292 pbc="F F F"
Ag       0.00000000       0.00000000       0.00000000       0.00000000       0.00000000       0.80926538
Ag       0.00000000       0.00000000       2.84141414       0.00000000       0.00000000      -0.80926538
2
Properties=species:S:1:pos:R:3:forces:R:3 energy=-1.687517756240492 pbc="F F F"
Ag       0.00000000       0.00000000       0.00000000       0.00000000       0.00000000       0.84685951
Ag       0.00000000       0.00000000       2.90101010       0.00000000       0.00000000      -0.84685951
2
Properties=species:S:1:pos:R:3:forces:R:3 energy=-1.6367042467389834 pbc="F F F"
Ag       0.00000000       0.00000000       0.00000000       0.00000000       0.00000000       0.85402495
Ag       0.00000000       0.00000000       2.96060606       0.00000000       0.00000000      -0.85402495
2
Properties=species:S:1:pos:R:3:forces:R:3 energy=-1.5861318684323742 pbc="F F F"
Ag       0.00000000       0.00000000       0.00000000       0.00000000       0.00000000       0.84083295
Ag       0.00000000       0.00000000       3.02020202       0.00000000       0.00000000      -0.84083295
2
Properties=species:S:1:pos:R:3:forces:R:3 energy=-1.5366215862260373 pbc="F F F"
Ag       0.00000000       0.00000000       0.00000000       0.00000000       0.00000000       0.82054603
Ag       0.00000000       0.00000000       3.07979798       0.00000000       0.00000000      -0.82054603
2
Properties=species:S:1:pos:R:3:forces:R:3 energy=-1.4882960453812908 pbc="F F F"
Ag       0.00000000       0.00000000       0.00000000       0.00000000       0.00000000       0.80154878
Ag       0.00000000       0.00000000       3.13939394       0.00000000       0.00000000      -0.80154878
2
Properties=species:S:1:pos:R:3:forces:R:3 energy=-1.4410826124000673 pbc="F F F"
Ag       0.00000000       0.00000000       0.00000000       0.00000000       0.00000000       0.78251052
Ag       0.00000000       0.00000000       3.19898990       0.00000000       0.00000000      -0.78251052
2
Properties=species:S:1:pos:R:3:forces:R:3 energy=-1.3951092468714865 pbc="F F F"
Ag       0.00000000       0.00000000       0.00000000       0.00000000       0.00000000       0.75948846
Ag       0.00000000       0.00000000       3.25858586       0.00000000       0.00000000      -0.75948846
2
Properties=species:S:1:pos:R:3:forces:R:3 energy=-1.3506556185434466 pbc="F F F"
Ag       0.00000000       0.00000000       0.00000000       0.00000000       0.00000000       0.73160154
Ag       0.00000000       0.00000000       3.31818182       0.00000000       0.00000000      -0.73160154
2
Properties=species:S:1:pos:R:3:forces:R:3 energy=-1.3079790659825437 pbc="F F F"
Ag       0.00000000       0.00000000       0.00000000       0.00000000       0.00000000       0.70015854
Ag       0.00000000       0.00000000       3.37777778       0.00000000       0.00000000      -0.70015854
2
Properties=species:S:1:pos:R:3:forces:R:3 energy=-1.2672414876820237 pbc="F F F"
Ag       0.00000000       0.00000000       0.00000000       0.00000000       0.00000000       0.66675609
Ag       0.00000000       0.00000000       3.43737374       0.00000000       0.00000000      -0.66675609
2
Properties=species:S:1:pos:R:3:forces:R:3 energy=-1.2285218926172718 pbc="F F F"
Ag       0.00000000       0.00000000       0.00000000       0.00000000       0.00000000       0.63258743
Ag       0.00000000       0.00000000       3.49696970       0.00000000       0.00000000      -0.63258743
2
Properties=species:S:1:pos:R:3:forces:R:3 energy=-1.1918411403592324 pbc="F F F"
Ag       0.00000000       0.00000000       0.00000000       0.00000000       0.00000000       0.59843147
Ag       0.00000000       0.00000000       3.55656566       0.00000000       0.00000000      -0.59843147
2
Properties=species:S:1:pos:R:3:forces:R:3 energy=-1.1571835349010358 pbc="F F F"
Ag       0.00000000       0.00000000       0.00000000       0.00000000       0.00000000       0.56479681
Ag       0.00000000       0.00000000       3.61616162       0.00000000       0.00000000      -0.56479681
2
Properties=species:S:1:pos:R:3:forces:R:3 energy=-1.1245050353333064 pbc="F F F"
Ag       0.00000000       0.00000000       0.00000000       0.00000000       0.00000000       0.53202718
Ag       0.00000000       0.00000000       3.67575758       0.00000000       0.00000000      -0.53202718
2
Properties=species:S:1:pos:R:3:forces:R:3 energy=-1.0937478862854915 pbc="F F F"
Ag       0.00000000       0.00000000       0.00000000       0.00000000       0.00000000       0.50036627
Ag       0.00000000       0.00000000       3.73535354       0.00000000       0.00000000      -0.50036627
2
Properties=species:S:1:pos:R:3:forces:R:3 energy=-1.0648400042329498 pbc="F F F"
Ag       0.00000000       0.00000000       0.00000000       0.00000000       0.00000000       0.46997684
Ag       0.00000000       0.00000000       3.79494949       0.00000000       0.00000000      -0.46997684
2
Properties=species:S:1:pos:R:3:forces:R:3 energy=-1.037703215289521 pbc="F F F"
Ag       0.00000000       0.00000000       0.00000000       0.00000000       0.00000000       0.44095597
Ag       0.00000000       0.00000000       3.85454545       0.00000000       0.00000000      -0.44095597
2
Properties=species:S:1:pos:R:3:forces:R:3 energy=-1.012253827503473 pbc="F F F"
Ag       0.00000000       0.00000000       0.00000000       0.00000000       0.00000000       0.41334805
Ag       0.00000000       0.00000000       3.91414141       0.00000000       0.00000000      -0.41334805
2
Properties=species:S:1:pos:R:3:forces:R:3 energy=-0.9884071885770792 pbc="F F F"
Ag       0.00000000       0.00000000       0.00000000       0.00000000       0.00000000       0.38715395
Ag       0.00000000       0.00000000       3.97373737       0.00000000       0.00000000      -0.38715395
2
Properties=species:S:1:pos:R:3:forces:R:3 energy=-0.9660803914183401 pbc="F F F"
Ag       0.00000000       0.00000000       0.00000000       0.00000000       0.00000000       0.36235324
Ag       0.00000000       0.00000000       4.03333333       0.00000000       0.00000000      -0.36235324
2
Properties=species:S:1:pos:R:3:forces:R:3 energy=-0.9451904350685439 pbc="F F F"
Ag       0.00000000       0.00000000       0.00000000       0.00000000       0.00000000       0.33891705
Ag       0.00000000       0.00000000       4.09292929       0.00000000       0.00000000      -0.33891705
2
Properties=species:S:1:pos:R:3:forces:R:3 energy=-0.9256572035186114 pbc="F F F"
Ag       0.00000000       0.00000000       0.00000000       0.00000000       0.00000000       0.31682765
Ag       0.00000000       0.00000000       4.15252525       0.00000000       0.00000000      -0.31682765
2
Properties=species:S:1:pos:R:3:forces:R:3 energy=-0.9074007506539067 pbc="F F F"
Ag       0.00000000       0.00000000       0.00000000       0.00000000       0.00000000       0.29608190
Ag       0.00000000       0.00000000       4.21212121       0.00000000       0.00000000      -0.29608190
2
Properties=species:S:1:pos:R:3:forces:R:3 energy=-0.8903396655862523 pbc="F F F"
Ag       0.00000000       0.00000000       0.00000000       0.00000000       0.00000000       0.27669087
Ag       0.00000000       0.00000000       4.27171717       0.00000000       0.00000000      -0.27669087
2
Properties=species:S:1:pos:R:3:forces:R:3 energy=-0.874394284969102 pbc="F F F"
Ag       0.00000000       0.00000000       0.00000000       0.00000000       0.00000000       0.25866356
Ag       0.00000000       0.00000000       4.33131313       0.00000000       0.00000000      -0.25866356
2
Properties=species:S:1:pos:R:3:forces:R:3 energy=-0.8594824308054341 pbc="F F F"
Ag       0.00000000       0.00000000       0.00000000       0.00000000       0.00000000       0.24198695
Ag       0.00000000       0.00000000       4.39090909       0.00000000       0.00000000      -0.24198695
2
Properties=species:S:1:pos:R:3:forces:R:3 energy=-0.8455253107236088 pbc="F F F"
Ag       0.00000000       0.00000000       0.00000000       0.00000000       0.00000000       0.22660603
Ag       0.00000000       0.00000000       4.45050505       0.00000000       0.00000000      -0.22660603
2
Properties=species:S:1:pos:R:3:forces:R:3 energy=-0.8324492110820468 pbc="F F F"
Ag       0.00000000       0.00000000       0.00000000       0.00000000       0.00000000       0.21240847
Ag       0.00000000       0.00000000       4.51010101       0.00000000       0.00000000      -0.21240847
2
Properties=species:S:1:pos:R:3:forces:R:3 energy=-0.8201878197984471 pbc="F F F"
Ag       0.00000000       0.00000000       0.00000000       0.00000000       0.00000000       0.19921778
Ag       0.00000000       0.00000000       4.56969697       0.00000000       0.00000000      -0.19921778
2
Properties=species:S:1:pos:R:3:forces:R:3 energy=-0.8086884569110657 pbc="F F F"
Ag       0.00000000       0.00000000       0.00000000       0.00000000       0.00000000       0.18680176
Ag       0.00000000       0.00000000       4.62929293       0.00000000       0.00000000      -0.18680176
2
Properties=species:S:1:pos:R:3:forces:R:3 energy=-0.7979125296570772 pbc="F F F"
Ag       0.00000000       0.00000000       0.00000000       0.00000000       0.00000000       0.17490184
Ag       0.00000000       0.00000000       4.68888889       0.00000000       0.00000000      -0.17490184
2
Properties=species:S:1:pos:R:3:forces:R:3 energy=-0.787836324755979 pbc="F F F"
Ag       0.00000000       0.00000000       0.00000000       0.00000000       0.00000000       0.16327001
Ag       0.00000000       0.00000000       4.74848485       0.00000000       0.00000000      -0.16327001
2
Properties=species:S:1:pos:R:3:forces:R:3 energy=-0.7784502824824356 pbc="F F F"
Ag       0.00000000       0.00000000       0.00000000       0.00000000       0.00000000       0.15173462
Ag       0.00000000       0.00000000       4.80808081       0.00000000       0.00000000      -0.15173462
2
Properties=species:S:1:pos:R:3:forces:R:3 energy=-0.7697497501947997 pbc="F F F"
Ag       0.00000000       0.00000000       0.00000000       0.00000000       0.00000000       0.14025560
Ag       0.00000000       0.00000000       4.86767677       0.00000000       0.00000000      -0.14025560
2
Properties=species:S:1:pos:R:3:forces:R:3 energy=-0.761728721095548 pbc="F F F"
Ag       0.00000000       0.00000000       0.00000000       0.00000000       0.00000000       0.12898211
Ag       0.00000000       0.00000000       4.92727273       0.00000000       0.00000000      -0.12898211
2
Properties=species:S:1:pos:R:3:forces:R:3 energy=-0.7543651267231971 pbc="F F F"
Ag       0.00000000       0.00000000       0.00000000       0.00000000       0.00000000       0.11826401
Ag       0.00000000       0.00000000       4.98686869       0.00000000       0.00000000      -0.11826401
2
Properties=species:S:1:pos:R:3:forces:R:3 energy=-0.7476121009960749 pbc="F F F"
Ag       0.00000000       0.00000000       0.00000000       0.00000000       0.00000000       0.10861220
Ag       0.00000000       0.00000000       5.04646465       0.00000000       0.00000000      -0.10861220
2
Properties=species:S:1:pos:R:3:forces:R:3 energy=-0.7413880383239557 pbc="F F F"
Ag       0.00000000       0.00000000       0.00000000       0.00000000       0.00000000       0.10056434
Ag       0.00000000       0.00000000       5.10606061       0.00000000       0.00000000      -0.10056434
2
Properties=species:S:1:pos:R:3:forces:R:3 energy=-0.735585824576462 pbc="F F F"
Ag       0.00000000       0.00000000       0.00000000       0.00000000       0.00000000       0.09445640
Ag       0.00000000       0.00000000       5.16565657       0.00000000       0.00000000      -0.09445640
2
Properties=species:S:1:pos:R:3:forces:R:3 energy=-0.73009331573829 pbc="F F F"
Ag       0.00000000       0.00000000       0.00000000       0.00000000       0.00000000       0.09011932
Ag       0.00000000       0.00000000       5.22525253       0.00000000       0.00000000      -0.09011932
2
Properties=species:S:1:pos:R:3:forces:R:3 energy=-0.7248277557157979 pbc="F F F"
Ag       0.00000000       0.00000000       0.00000000       0.00000000       0.00000000       0.08661490
Ag       0.00000000       0.00000000       5.28484848       0.00000000       0.00000000      -0.08661490
2
Properties=species:S:1:pos:R:3:forces:R:3 energy=-0.7197829885513782 pbc="F F F"
Ag       0.00000000       0.00000000       0.00000000       0.00000000       0.00000000       0.08245472
Ag       0.00000000       0.00000000       5.34444444       0.00000000       0.00000000      -0.08245472
2
Properties=species:S:1:pos:R:3:forces:R:3 energy=-0.7150255641146785 pbc="F F F"
Ag       0.00000000       0.00000000       0.00000000       0.00000000       0.00000000       0.07710171
Ag       0.00000000       0.00000000       5.40404040       0.00000000       0.00000000      -0.07710171
2
Properties=species:S:1:pos:R:3:forces:R:3 energy=-0.7105706418161555 pbc="F F F"
Ag       0.00000000       0.00000000       0.00000000       0.00000000       0.00000000       0.07281279
Ag       0.00000000       0.00000000       5.46363636       0.00000000       0.00000000      -0.07281279
2
Properties=species:S:1:pos:R:3:forces:R:3 energy=-0.7063049550635129 pbc="F F F"
Ag       0.00000000       0.00000000       0.00000000       0.00000000       0.00000000       0.07038069
Ag       0.00000000       0.00000000       5.52323232       0.00000000       0.00000000      -0.07038069
2
Properties=species:S:1:pos:R:3:forces:R:3 energy=-0.7022505639827195 pbc="F F F"
Ag       0.00000000       0.00000000       0.00000000       0.00000000       0.00000000       0.06479209
Ag       0.00000000       0.00000000       5.58282828       0.00000000       0.00000000      -0.06479209
2
Properties=species:S:1:pos:R:3:forces:R:3 energy=-0.6986650476580549 pbc="F F F"
Ag       0.00000000       0.00000000       0.00000000       0.00000000       0.00000000       0.05525357
Ag       0.00000000       0.00000000       5.64242424       0.00000000       0.00000000      -0.05525357
2
Properties=species:S:1:pos:R:3:forces:R:3 energy=-0.6956342340978904 pbc="F F F"
Ag       0.00000000       0.00000000       0.00000000       0.00000000       0.00000000       0.04722639
Ag       0.00000000       0.00000000       5.70202020       0.00000000       0.00000000      -0.04722639
2
Properties=species:S:1:pos:R:3:forces:R:3 energy=-0.692905914363143 pbc="F F F"
Ag       0.00000000       0.00000000       0.00000000       0.00000000       0.00000000       0.04525973
Ag       0.00000000       0.00000000       5.76161616       0.00000000       0.00000000      -0.04525973
2
Properties=species:S:1:pos:R:3:forces:R:3 energy=-0.6902732903344931 pbc="F F F"
Ag       0.00000000       0.00000000       0.00000000       0.00000000       0.00000000       0.04158668
Ag       0.00000000       0.00000000       5.82121212       0.00000000       0.00000000      -0.04158668
2
Properties=species:S:1:pos:R:3:forces:R:3 energy=-0.6881609844051266 pbc="F F F"
Ag       0.00000000       0.00000000       0.00000000       0.00000000       0.00000000       0.02823407
Ag       0.00000000       0.00000000       5.88080808       0.00000000       0.00000000      -0.02823407
2
Properties=species:S:1:pos:R:3:forces:R:3 energy=-0.6869317135009733 pbc="F F F"
Ag       0.00000000       0.00000000       0.00000000       0.00000000       0.00000000       0.01346769
Ag       0.00000000       0.00000000       5.94040404       0.00000000       0.00000000      -0.01346769
2
Properties=species:S:1:pos:R:3:forces:R:3 energy=-0.6863757449959167 pbc="F F F"
Ag       0.00000000       0.00000000       0.00000000       0.00000000       0.00000000       0.00717060
Ag       0.00000000       0.00000000       6.00000000       0.00000000       0.00000000      -0.00717060
