2
Properties=species:S:1:pos:R:3:forces:R:3 energy=2921.524606617096 pbc="F F F"
Ar       0.00000000       0.00000000       0.00000000       0.00000000       0.00000000  -29773.11718750
Ar       0.00000000       0.00000000       0.18000000       0.00000000       0.00000000   29773.11718750
2
Properties=species:S:1:pos:R:3:forces:R:3 energy=1791.2331027108462 pbc="F F F"
Ar       0.00000000       0.00000000       0.00000000       0.00000000       0.00000000  -12298.26953125
Ar       0.00000000       0.00000000       0.23878788       0.00000000       0.00000000   12298.26953125
2
Properties=species:S:1:pos:R:3:forces:R:3 energy=1238.0510958780765 pbc="F F F"
Ar       0.00000000       0.00000000       0.00000000       0.00000000       0.00000000   -7665.01904297
Ar       0.00000000       0.00000000       0.29757576       0.00000000       0.00000000    7665.01904297
2
Properties=species:S:1:pos:R:3:forces:R:3 energy=798.4529513547461 pbc="F F F"
Ar       0.00000000       0.00000000       0.00000000       0.00000000       0.00000000   -7864.20654297
Ar       0.00000000       0.00000000       0.35636364       0.00000000       0.00000000    7864.20654297
2
Properties=species:S:1:pos:R:3:forces:R:3 energy=255.47631257822383 pbc="F F F"
Ar       0.00000000       0.00000000       0.00000000       0.00000000       0.00000000  -11056.18164062
Ar       0.00000000       0.00000000       0.41515152       0.00000000       0.00000000   11056.18164062
2
Properties=species:S:1:pos:R:3:forces:R:3 energy=-550.294424081266 pbc="F F F"
Ar       0.00000000       0.00000000       0.00000000       0.00000000       0.00000000  -16717.95898438
Ar       0.00000000       0.00000000       0.47393939       0.00000000       0.00000000   16717.95898438
2
Properties=species:S:1:pos:R:3:forces:R:3 energy=-1764.941457704564 pbc="F F F"
Ar       0.00000000       0.00000000       0.00000000       0.00000000       0.00000000  -24288.34375000
Ar       0.00000000       0.00000000       0.53272727       0.00000000       0.00000000   24288.34375000
2
Properties=species:S:1:pos:R:3:forces:R:3 energy=-3341.4832056342298 pbc="F F F"
Ar       0.00000000       0.00000000       0.00000000       0.00000000       0.00000000  -28099.57812500
Ar       0.00000000       0.00000000       0.59151515       0.00000000       0.00000000   28099.57812500
2
Properties=species:S:1:pos:R:3:forces:R:3 energy=-4039.0513206753676 pbc="F F F"
Ar       0.00000000       0.00000000       0.00000000       0.00000000       0.00000000   -1112.00817871
Ar       0.00000000       0.00000000       0.65030303       0.00000000       0.00000000    1112.00817871
2
Properties=species:S:1:pos:R:3:forces:R:3 energy=-4242.419484433756 pbc="F F F"
Ar       0.00000000       0.00000000       0.00000000       0.00000000       0.00000000    1404.97424316
Ar       0.00000000       0.00000000       0.70909091       0.00000000       0.00000000   -1404.97424316
2
Properties=species:S:1:pos:R:3:forces:R:3 energy=-3769.4956558430868 pbc="F F F"
Ar       0.00000000       0.00000000       0.00000000       0.00000000       0.00000000   12049.46191406
Ar       0.00000000       0.00000000       0.76787879       0.00000000       0.00000000  -12049.46191406
2
Properties=species:S:1:pos:R:3:forces:R:3 energy=-2922.17168055263 pbc="F F F"
Ar       0.00000000       0.00000000       0.00000000       0.00000000       0.00000000   15362.54296875
Ar       0.00000000       0.00000000       0.82666667       0.00000000       0.00000000  -15362.54296875
2
Properties=species:S:1:pos:R:3:forces:R:3 energy=-2014.2555418784605 pbc="F F F"
Ar       0.00000000       0.00000000       0.00000000       0.00000000       0.00000000   14914.27343750
Ar       0.00000000       0.00000000       0.88545455       0.00000000       0.00000000  -14914.27343750
2
Properties=species:S:1:pos:R:3:forces:R:3 energy=-1213.375535623981 pbc="F F F"
Ar       0.00000000       0.00000000       0.00000000       0.00000000       0.00000000   12110.19238281
Ar       0.00000000       0.00000000       0.94424242       0.00000000       0.00000000  -12110.19238281
2
Properties=species:S:1:pos:R:3:forces:R:3 energy=-614.2809902852634 pbc="F F F"
Ar       0.00000000       0.00000000       0.00000000       0.00000000       0.00000000    8177.77929688
Ar       0.00000000       0.00000000       1.00303030       0.00000000       0.00000000   -8177.77929688
2
Properties=species:S:1:pos:R:3:forces:R:3 energy=-244.9438600638749 pbc="F F F"
Ar       0.00000000       0.00000000       0.00000000       0.00000000       0.00000000    4503.29980469
Ar       0.00000000       0.00000000       1.06181818       0.00000000       0.00000000   -4503.29980469
2
Properties=species:S:1:pos:R:3:forces:R:3 energy=-75.11515186407948 pbc="F F F"
Ar       0.00000000       0.00000000       0.00000000       0.00000000       0.00000000    1775.75659180
Ar       0.00000000       0.00000000       1.12060606       0.00000000       0.00000000   -1775.75659180
2
Properties=species:S:1:pos:R:3:forces:R:3 energy=-9.192037452566947 pbc="F F F"
Ar       0.00000000       0.00000000       0.00000000       0.00000000       0.00000000     623.21343994
Ar       0.00000000       0.00000000       1.17939394       0.00000000       0.00000000    -623.21343994
2
Properties=species:S:1:pos:R:3:forces:R:3 energy=9.796167462930864 pbc="F F F"
Ar       0.00000000       0.00000000       0.00000000       0.00000000       0.00000000      89.86156464
Ar       0.00000000       0.00000000       1.23818182       0.00000000       0.00000000     -89.86156464
2
Properties=species:S:1:pos:R:3:forces:R:3 energy=11.387963010758646 pbc="F F F"
Ar       0.00000000       0.00000000       0.00000000       0.00000000       0.00000000     166.58729553
Ar       0.00000000       0.00000000       1.29696970       0.00000000       0.00000000    -166.58729553
2
Properties=species:S:1:pos:R:3:forces:R:3 energy=24.607942875225298 pbc="F F F"
Ar       0.00000000       0.00000000       0.00000000       0.00000000       0.00000000     111.13025665
Ar       0.00000000       0.00000000       1.35575758       0.00000000       0.00000000    -111.13025665
2
Properties=species:S:1:pos:R:3:forces:R:3 energy=25.506916354112033 pbc="F F F"
Ar       0.00000000       0.00000000       0.00000000       0.00000000       0.00000000     -49.13535690
Ar       0.00000000       0.00000000       1.41454545       0.00000000       0.00000000      49.13535690
2
Properties=species:S:1:pos:R:3:forces:R:3 energy=21.253062450847466 pbc="F F F"
Ar       0.00000000       0.00000000       0.00000000       0.00000000       0.00000000     -83.67885590
Ar       0.00000000       0.00000000       1.47333333       0.00000000       0.00000000      83.67885590
2
Properties=species:S:1:pos:R:3:forces:R:3 energy=16.459983364773013 pbc="F F F"
Ar       0.00000000       0.00000000       0.00000000       0.00000000       0.00000000     -76.11306763
Ar       0.00000000       0.00000000       1.53212121       0.00000000       0.00000000      76.11306763
2
Properties=species:S:1:pos:R:3:forces:R:3 energy=12.47533687452271 pbc="F F F"
Ar       0.00000000       0.00000000       0.00000000       0.00000000       0.00000000     -59.14574814
Ar       0.00000000       0.00000000       1.59090909       0.00000000       0.00000000      59.14574814
2
Properties=species:S:1:pos:R:3:forces:R:3 energy=9.477092622637134 pbc="F F F"
Ar       0.00000000       0.00000000       0.00000000       0.00000000       0.00000000     -43.40600204
Ar       0.00000000       0.00000000       1.64969697       0.00000000       0.00000000      43.40600204
2
Properties=species:S:1:pos:R:3:forces:R:3 energy=7.297086130806197 pbc="F F F"
Ar       0.00000000       0.00000000       0.00000000       0.00000000       0.00000000     -31.40078163
Ar       0.00000000       0.00000000       1.70848485       0.00000000       0.00000000      31.40078163
2
Properties=species:S:1:pos:R:3:forces:R:3 energy=5.716320745762462 pbc="F F F"
Ar       0.00000000       0.00000000       0.00000000       0.00000000       0.00000000     -22.89043427
Ar       0.00000000       0.00000000       1.76727273       0.00000000       0.00000000      22.89043427
2
Properties=species:S:1:pos:R:3:forces:R:3 energy=4.55454101152506 pbc="F F F"
Ar       0.00000000       0.00000000       0.00000000       0.00000000       0.00000000     -16.99613190
Ar       0.00000000       0.00000000       1.82606061       0.00000000       0.00000000      16.99613190
2
Properties=species:S:1:pos:R:3:forces:R:3 energy=3.6827696767149027 pbc="F F F"
Ar       0.00000000       0.00000000       0.00000000       0.00000000       0.00000000     -12.90700340
Ar       0.00000000       0.00000000       1.88484848       0.00000000       0.00000000      12.90700340
2
Properties=species:S:1:pos:R:3:forces:R:3 energy=3.013351587365174 pbc="F F F"
Ar       0.00000000       0.00000000       0.00000000       0.00000000       0.00000000     -10.03092861
Ar       0.00000000       0.00000000       1.94363636       0.00000000       0.00000000      10.03092861
2
Properties=species:S:1:pos:R:3:forces:R:3 energy=2.4874748379003186 pbc="F F F"
Ar       0.00000000       0.00000000       0.00000000       0.00000000       0.00000000      -7.97070980
Ar       0.00000000       0.00000000       2.00242424       0.00000000       0.00000000       7.97070980
2
Properties=species:S:1:pos:R:3:forces:R:3 energy=2.06536797342854 pbc="F F F"
Ar       0.00000000       0.00000000       0.00000000       0.00000000       0.00000000      -6.46577263
Ar       0.00000000       0.00000000       2.06121212       0.00000000       0.00000000       6.46577263
2
Properties=species:S:1:pos:R:3:forces:R:3 energy=1.7198003337280703 pbc="F F F"
Ar       0.00000000       0.00000000       0.00000000       0.00000000       0.00000000      -5.34326363
Ar       0.00000000       0.00000000       2.12000000       0.00000000       0.00000000       5.34326363
2
Properties=species:S:1:pos:R:3:forces:R:3 energy=1.4319679992807273 pbc="F F F"
Ar       0.00000000       0.00000000       0.00000000       0.00000000       0.00000000      -4.48522472
Ar       0.00000000       0.00000000       2.17878788       0.00000000       0.00000000       4.48522472
2
Properties=species:S:1:pos:R:3:forces:R:3 energy=1.1888806123552285 pbc="F F F"
Ar       0.00000000       0.00000000       0.00000000       0.00000000       0.00000000      -3.80994344
Ar       0.00000000       0.00000000       2.23757576       0.00000000       0.00000000       3.80994344
2
Properties=species:S:1:pos:R:3:forces:R:3 energy=0.9815504560183347 pbc="F F F"
Ar       0.00000000       0.00000000       0.00000000       0.00000000       0.00000000      -3.26091599
Ar       0.00000000       0.00000000       2.29636364       0.00000000       0.00000000       3.26091599
2
Properties=species:S:1:pos:R:3:forces:R:3 energy=0.8037637855782307 pbc="F F F"
Ar       0.00000000       0.00000000       0.00000000       0.00000000       0.00000000      -2.79970121
Ar       0.00000000       0.00000000       2.35515152       0.00000000       0.00000000       2.79970121
2
Properties=species:S:1:pos:R:3:forces:R:3 energy=0.6511490966969509 pbc="F F F"
Ar       0.00000000       0.00000000       0.00000000       0.00000000       0.00000000      -2.40130162
Ar       0.00000000       0.00000000       2.41393939       0.00000000       0.00000000       2.40130162
2
Properties=species:S:1:pos:R:3:forces:R:3 energy=0.5204981181965888 pbc="F F F"
Ar       0.00000000       0.00000000       0.00000000       0.00000000       0.00000000      -2.05059385
Ar       0.00000000       0.00000000       2.47272727       0.00000000       0.00000000       2.05059385
2
Properties=species:S:1:pos:R:3:forces:R:3 energy=0.40927868805614853 pbc="F F F"
Ar       0.00000000       0.00000000       0.00000000       0.00000000       0.00000000      -1.73930740
Ar       0.00000000       0.00000000       2.53151515       0.00000000       0.00000000       1.73930740
2
Properties=species:S:1:pos:R:3:forces:R:3 energy=0.31530530428467235 pbc="F F F"
Ar       0.00000000       0.00000000       0.00000000       0.00000000       0.00000000      -1.46341681
Ar       0.00000000       0.00000000       2.59030303       0.00000000       0.00000000       1.46341681
2
Properties=species:S:1:pos:R:3:forces:R:3 energy=0.2365601157498924 pbc="F F F"
Ar       0.00000000       0.00000000       0.00000000       0.00000000       0.00000000      -1.22102571
Ar       0.00000000       0.00000000       2.64909091       0.00000000       0.00000000       1.22102571
2
Properties=species:S:1:pos:R:3:forces:R:3 energy=0.1711110964423059 pbc="F F F"
Ar       0.00000000       0.00000000       0.00000000       0.00000000       0.00000000      -1.01082718
Ar       0.00000000       0.00000000       2.70787879       0.00000000       0.00000000       1.01082718
2
Properties=species:S:1:pos:R:3:forces:R:3 energy=0.11711177602433567 pbc="F F F"
Ar       0.00000000       0.00000000       0.00000000       0.00000000       0.00000000      -0.83121145
Ar       0.00000000       0.00000000       2.76666667       0.00000000       0.00000000       0.83121145
2
Properties=species:S:1:pos:R:3:forces:R:3 energy=0.07282595933482527 pbc="F F F"
Ar       0.00000000       0.00000000       0.00000000       0.00000000       0.00000000      -0.67989683
Ar       0.00000000       0.00000000       2.82545455       0.00000000       0.00000000       0.67989683
2
Properties=species:S:1:pos:R:3:forces:R:3 energy=0.03667384583690751 pbc="F F F"
Ar       0.00000000       0.00000000       0.00000000       0.00000000       0.00000000      -0.55398613
Ar       0.00000000       0.00000000       2.88424242       0.00000000       0.00000000       0.55398613
2
Properties=species:S:1:pos:R:3:forces:R:3 energy=0.007256961844527798 pbc="F F F"
Ar       0.00000000       0.00000000       0.00000000       0.00000000       0.00000000      -0.45018998
Ar       0.00000000       0.00000000       2.94303030       0.00000000       0.00000000       0.45018998
2
Properties=species:S:1:pos:R:3:forces:R:3 energy=-0.016624774595167983 pbc="F F F"
Ar       0.00000000       0.00000000       0.00000000       0.00000000       0.00000000      -0.36514175
Ar       0.00000000       0.00000000       3.00181818       0.00000000       0.00000000       0.36514175
2
Properties=species:S:1:pos:R:3:forces:R:3 energy=-0.03597897497552345 pbc="F F F"
Ar       0.00000000       0.00000000       0.00000000       0.00000000       0.00000000      -0.29563996
Ar       0.00000000       0.00000000       3.06060606       0.00000000       0.00000000       0.29563996
2
Properties=species:S:1:pos:R:3:forces:R:3 energy=-0.05163333596560187 pbc="F F F"
Ar       0.00000000       0.00000000       0.00000000       0.00000000       0.00000000      -0.23883596
Ar       0.00000000       0.00000000       3.11939394       0.00000000       0.00000000       0.23883596
2
Properties=species:S:1:pos:R:3:forces:R:3 energy=-0.06426129539597827 pbc="F F F"
Ar       0.00000000       0.00000000       0.00000000       0.00000000       0.00000000      -0.19230559
Ar       0.00000000       0.00000000       3.17818182       0.00000000       0.00000000       0.19230559
2
Properties=species:S:1:pos:R:3:forces:R:3 energy=-0.0744061455938666 pbc="F F F"
Ar       0.00000000       0.00000000       0.00000000       0.00000000       0.00000000      -0.15407099
Ar       0.00000000       0.00000000       3.23696970       0.00000000       0.00000000       0.15407099
2
Properties=species:S:1:pos:R:3:forces:R:3 energy=-0.08250784828816826 pbc="F F F"
Ar       0.00000000       0.00000000       0.00000000       0.00000000       0.00000000      -0.12256091
Ar       0.00000000       0.00000000       3.29575758       0.00000000       0.00000000       0.12256091
2
Properties=species:S:1:pos:R:3:forces:R:3 energy=-0.08892405891797897 pbc="F F F"
Ar       0.00000000       0.00000000       0.00000000       0.00000000       0.00000000      -0.09655523
Ar       0.00000000       0.00000000       3.35454545       0.00000000       0.00000000       0.09655523
2
Properties=species:S:1:pos:R:3:forces:R:3 energy=-0.09394975439970071 pbc="F F F"
Ar       0.00000000       0.00000000       0.00000000       0.00000000       0.00000000      -0.07511519
Ar       0.00000000       0.00000000       3.41333333       0.00000000       0.00000000       0.07511519
2
Properties=species:S:1:pos:R:3:forces:R:3 energy=-0.09783103568157109 pbc="F F F"
Ar       0.00000000       0.00000000       0.00000000       0.00000000       0.00000000      -0.05751460
Ar       0.00000000       0.00000000       3.47212121       0.00000000       0.00000000       0.05751460
2
Properties=species:S:1:pos:R:3:forces:R:3 energy=-0.10077586312783152 pbc="F F F"
Ar       0.00000000       0.00000000       0.00000000       0.00000000       0.00000000      -0.04317540
Ar       0.00000000       0.00000000       3.53090909       0.00000000       0.00000000       0.04317540
2
Properties=species:S:1:pos:R:3:forces:R:3 energy=-0.10296170738903618 pbc="F F F"
Ar       0.00000000       0.00000000       0.00000000       0.00000000       0.00000000      -0.03161411
Ar       0.00000000       0.00000000       3.58969697       0.00000000       0.00000000       0.03161411
2
Properties=species:S:1:pos:R:3:forces:R:3 energy=-0.10453903445985788 pbc="F F F"
Ar       0.00000000       0.00000000       0.00000000       0.00000000       0.00000000      -0.02240643
Ar       0.00000000       0.00000000       3.64848485       0.00000000       0.00000000       0.02240643
2
Properties=species:S:1:pos:R:3:forces:R:3 energy=-0.10563463333675162 pbc="F F F"
Ar       0.00000000       0.00000000       0.00000000       0.00000000       0.00000000      -0.01516428
Ar       0.00000000       0.00000000       3.70727273       0.00000000       0.00000000       0.01516428
2
Properties=species:S:1:pos:R:3:forces:R:3 energy=-0.10635350964234806 pbc="F F F"
Ar       0.00000000       0.00000000       0.00000000       0.00000000       0.00000000      -0.00952990
Ar       0.00000000       0.00000000       3.76606061       0.00000000       0.00000000       0.00952990
2
Properties=species:S:1:pos:R:3:forces:R:3 energy=-0.10678028402072468 pbc="F F F"
Ar       0.00000000       0.00000000       0.00000000       0.00000000       0.00000000      -0.00517893
Ar       0.00000000       0.00000000       3.82484848       0.00000000       0.00000000       0.00517893
2
Properties=species:S:1:pos:R:3:forces:R:3 energy=-0.10698195874065917 pbc="F F F"
Ar       0.00000000       0.00000000       0.00000000       0.00000000       0.00000000      -0.00182757
Ar       0.00000000       0.00000000       3.88363636       0.00000000       0.00000000       0.00182757
2
Properties=species:S:1:pos:R:3:forces:R:3 energy=-0.10701012069161973 pbc="F F F"
Ar       0.00000000       0.00000000       0.00000000       0.00000000       0.00000000       0.00075780
Ar       0.00000000       0.00000000       3.94242424       0.00000000       0.00000000      -0.00075780
2
Properties=species:S:1:pos:R:3:forces:R:3 energy=-0.10690426977139864 pbc="F F F"
Ar       0.00000000       0.00000000       0.00000000       0.00000000       0.00000000       0.00275846
Ar       0.00000000       0.00000000       4.00121212       0.00000000       0.00000000      -0.00275846
2
Properties=species:S:1:pos:R:3:forces:R:3 energy=-0.10669466245504693 pbc="F F F"
Ar       0.00000000       0.00000000       0.00000000       0.00000000       0.00000000       0.00430525
Ar       0.00000000       0.00000000       4.06000000       0.00000000       0.00000000      -0.00430525
2
Properties=species:S:1:pos:R:3:forces:R:3 energy=-0.1064052580880264 pbc="F F F"
Ar       0.00000000       0.00000000       0.00000000       0.00000000       0.00000000       0.00548615
Ar       0.00000000       0.00000000       4.11878788       0.00000000       0.00000000      -0.00548615
2
Properties=species:S:1:pos:R:3:forces:R:3 energy=-0.10605569865676974 pbc="F F F"
Ar       0.00000000       0.00000000       0.00000000       0.00000000       0.00000000       0.00635793
Ar       0.00000000       0.00000000       4.17757576       0.00000000       0.00000000      -0.00635793
2
Properties=species:S:1:pos:R:3:forces:R:3 energy=-0.10566305964412812 pbc="F F F"
Ar       0.00000000       0.00000000       0.00000000       0.00000000       0.00000000       0.00695713
Ar       0.00000000       0.00000000       4.23636364       0.00000000       0.00000000      -0.00695713
2
Properties=species:S:1:pos:R:3:forces:R:3 energy=-0.1052425104012041 pbc="F F F"
Ar       0.00000000       0.00000000       0.00000000       0.00000000       0.00000000       0.00731057
Ar       0.00000000       0.00000000       4.29515152       0.00000000       0.00000000      -0.00731057
2
Properties=species:S:1:pos:R:3:forces:R:3 energy=-0.10480785988464164 pbc="F F F"
Ar       0.00000000       0.00000000       0.00000000       0.00000000       0.00000000       0.00744036
Ar       0.00000000       0.00000000       4.35393939       0.00000000       0.00000000      -0.00744036
2
Properties=species:S:1:pos:R:3:forces:R:3 energy=-0.10437165160728201 pbc="F F F"
Ar       0.00000000       0.00000000       0.00000000       0.00000000       0.00000000       0.00736875
Ar       0.00000000       0.00000000       4.41272727       0.00000000       0.00000000      -0.00736875
2
Properties=species:S:1:pos:R:3:forces:R:3 energy=-0.10394496939210797 pbc="F F F"
Ar       0.00000000       0.00000000       0.00000000       0.00000000       0.00000000       0.00711972
Ar       0.00000000       0.00000000       4.47151515       0.00000000       0.00000000      -0.00711972
2
Properties=species:S:1:pos:R:3:forces:R:3 energy=-0.10353745746312022 pbc="F F F"
Ar       0.00000000       0.00000000       0.00000000       0.00000000       0.00000000       0.00672308
Ar       0.00000000       0.00000000       4.53030303       0.00000000       0.00000000      -0.00672308
2
Properties=species:S:1:pos:R:3:forces:R:3 energy=-0.10315663078216106 pbc="F F F"
Ar       0.00000000       0.00000000       0.00000000       0.00000000       0.00000000       0.00621832
Ar       0.00000000       0.00000000       4.58909091       0.00000000       0.00000000      -0.00621832
2
Properties=species:S:1:pos:R:3:forces:R:3 energy=-0.10280740570434102 pbc="F F F"
Ar       0.00000000       0.00000000       0.00000000       0.00000000       0.00000000       0.00565815
Ar       0.00000000       0.00000000       4.64787879       0.00000000       0.00000000      -0.00565815
2
Properties=species:S:1:pos:R:3:forces:R:3 energy=-0.10249114936755488 pbc="F F F"
Ar       0.00000000       0.00000000       0.00000000       0.00000000       0.00000000       0.00510921
Ar       0.00000000       0.00000000       4.70666667       0.00000000       0.00000000      -0.00510921
2
Properties=species:S:1:pos:R:3:forces:R:3 energy=-0.10220503116898894 pbc="F F F"
Ar       0.00000000       0.00000000       0.00000000       0.00000000       0.00000000       0.00464481
Ar       0.00000000       0.00000000       4.76545455       0.00000000       0.00000000      -0.00464481
2
Properties=species:S:1:pos:R:3:forces:R:3 energy=-0.10194205365138698 pbc="F F F"
Ar       0.00000000       0.00000000       0.00000000       0.00000000       0.00000000       0.00433204
Ar       0.00000000       0.00000000       4.82424242       0.00000000       0.00000000      -0.00433204
2
Properties=species:S:1:pos:R:3:forces:R:3 energy=-0.10169189416867393 pbc="F F F"
Ar       0.00000000       0.00000000       0.00000000       0.00000000       0.00000000       0.00421083
Ar       0.00000000       0.00000000       4.88303030       0.00000000       0.00000000      -0.00421083
2
Properties=species:S:1:pos:R:3:forces:R:3 energy=-0.10144333219131946 pbc="F F F"
Ar       0.00000000       0.00000000       0.00000000       0.00000000       0.00000000       0.00427154
Ar       0.00000000       0.00000000       4.94181818       0.00000000       0.00000000      -0.00427154
2
Properties=species:S:1:pos:R:3:forces:R:3 energy=-0.10118753404343883 pbc="F F F"
Ar       0.00000000       0.00000000       0.00000000       0.00000000       0.00000000       0.00443974
Ar       0.00000000       0.00000000       5.00060606       0.00000000       0.00000000      -0.00443974
2
Properties=species:S:1:pos:R:3:forces:R:3 energy=-0.100921862004375 pbc="F F F"
Ar       0.00000000       0.00000000       0.00000000       0.00000000       0.00000000       0.00458014
Ar       0.00000000       0.00000000       5.05939394       0.00000000       0.00000000      -0.00458014
2
Properties=species:S:1:pos:R:3:forces:R:3 energy=-0.1006527044663839 pbc="F F F"
Ar       0.00000000       0.00000000       0.00000000       0.00000000       0.00000000       0.00453440
Ar       0.00000000       0.00000000       5.11818182       0.00000000       0.00000000      -0.00453440
2
Properties=species:S:1:pos:R:3:forces:R:3 energy=-0.10039448963415648 pbc="F F F"
Ar       0.00000000       0.00000000       0.00000000       0.00000000       0.00000000       0.00420023
Ar       0.00000000       0.00000000       5.17696970       0.00000000       0.00000000      -0.00420023
2
Properties=species:S:1:pos:R:3:forces:R:3 energy=-0.10016349429033156 pbc="F F F"
Ar       0.00000000       0.00000000       0.00000000       0.00000000       0.00000000       0.00363766
Ar       0.00000000       0.00000000       5.23575758       0.00000000       0.00000000      -0.00363766
2
Properties=species:S:1:pos:R:3:forces:R:3 energy=-0.09996564660109192 pbc="F F F"
Ar       0.00000000       0.00000000       0.00000000       0.00000000       0.00000000       0.00313927
Ar       0.00000000       0.00000000       5.29454545       0.00000000       0.00000000      -0.00313927
2
Properties=species:S:1:pos:R:3:forces:R:3 energy=-0.09978498108205018 pbc="F F F"
Ar       0.00000000       0.00000000       0.00000000       0.00000000       0.00000000       0.00310744
Ar       0.00000000       0.00000000       5.35333333       0.00000000       0.00000000      -0.00310744
2
Properties=species:S:1:pos:R:3:forces:R:3 energy=-0.0995913571287613 pbc="F F F"
Ar       0.00000000       0.00000000       0.00000000       0.00000000       0.00000000       0.00348577
Ar       0.00000000       0.00000000       5.41212121       0.00000000       0.00000000      -0.00348577
2
Properties=species:S:1:pos:R:3:forces:R:3 energy=-0.09938885568541059 pbc="F F F"
Ar       0.00000000       0.00000000       0.00000000       0.00000000       0.00000000       0.00317440
Ar       0.00000000       0.00000000       5.47090909       0.00000000       0.00000000      -0.00317440
2
Properties=species:S:1:pos:R:3:forces:R:3 energy=-0.09924330527933609 pbc="F F F"
Ar       0.00000000       0.00000000       0.00000000       0.00000000       0.00000000       0.00170280
Ar       0.00000000       0.00000000       5.52969697       0.00000000       0.00000000      -0.00170280
2
Properties=species:S:1:pos:R:3:forces:R:3 energy=-0.09917300029664139 pbc="F F F"
Ar       0.00000000       0.00000000       0.00000000       0.00000000       0.00000000       0.00095121
Ar       0.00000000       0.00000000       5.58848485       0.00000000       0.00000000      -0.00095121
2
Properties=species:S:1:pos:R:3:forces:R:3 energy=-0.09910625153373202 pbc="F F F"
Ar       0.00000000       0.00000000       0.00000000       0.00000000       0.00000000       0.00140346
Ar       0.00000000       0.00000000       5.64727273       0.00000000       0.00000000      -0.00140346
2
Properties=species:S:1:pos:R:3:forces:R:3 energy=-0.09902151515926877 pbc="F F F"
Ar       0.00000000       0.00000000       0.00000000       0.00000000       0.00000000       0.00114643
Ar       0.00000000       0.00000000       5.70606061       0.00000000       0.00000000      -0.00114643
2
Properties=species:S:1:pos:R:3:forces:R:3 energy=-0.09902436545427001 pbc="F F F"
Ar       0.00000000       0.00000000       0.00000000       0.00000000       0.00000000      -0.00160180
Ar       0.00000000       0.00000000       5.76484848       0.00000000       0.00000000       0.00160180
2
Properties=species:S:1:pos:R:3:forces:R:3 energy=-0.09920471436041337 pbc="F F F"
Ar       0.00000000       0.00000000       0.00000000       0.00000000       0.00000000      -0.00406896
Ar       0.00000000       0.00000000       5.82363636       0.00000000       0.00000000       0.00406896
2
Properties=species:S:1:pos:R:3:forces:R:3 energy=-0.09942535301431185 pbc="F F F"
Ar       0.00000000       0.00000000       0.00000000       0.00000000       0.00000000      -0.00289728
Ar       0.00000000       0.00000000       5.88242424       0.00000000       0.00000000       0.00289728
2
Properties=species:S:1:pos:R:3:forces:R:3 energy=-0.09951565669360603 pbc="F F F"
Ar       0.00000000       0.00000000       0.00000000       0.00000000       0.00000000      -0.00019782
Ar       0.00000000       0.00000000       5.94121212       0.00000000       0.00000000       0.00019782
2
Properties=species:S:1:pos:R:3:forces:R:3 energy=-0.09948092021619577 pbc="F F F"
Ar       0.00000000       0.00000000       0.00000000       0.00000000       0.00000000       0.00097438
Ar       0.00000000       0.00000000       6.00000000       0.00000000       0.00000000      -0.00097438
