2
Properties=species:S:1:pos:R:3:forces:R:3 energy=5354.303599922909 pbc="F F F"
As       0.00000000       0.00000000       0.00000000       0.00000000       0.00000000  -76453.36718750
As       0.00000000       0.00000000       0.18000000       0.00000000       0.00000000   76453.36718750
2
Properties=species:S:1:pos:R:3:forces:R:3 energy=2589.925181954159 pbc="F F F"
As       0.00000000       0.00000000       0.00000000       0.00000000       0.00000000  -27481.14843750
As       0.00000000       0.00000000       0.23878788       0.00000000       0.00000000   27481.14843750
2
Properties=species:S:1:pos:R:3:forces:R:3 energy=1511.4201770713464 pbc="F F F"
As       0.00000000       0.00000000       0.00000000       0.00000000       0.00000000  -11857.91406250
As       0.00000000       0.00000000       0.29757576       0.00000000       0.00000000   11857.91406250
2
Properties=species:S:1:pos:R:3:forces:R:3 energy=1013.1834217065883 pbc="F F F"
As       0.00000000       0.00000000       0.00000000       0.00000000       0.00000000   -5981.12646484
As       0.00000000       0.00000000       0.35636364       0.00000000       0.00000000    5981.12646484
2
Properties=species:S:1:pos:R:3:forces:R:3 energy=742.5610462246427 pbc="F F F"
As       0.00000000       0.00000000       0.00000000       0.00000000       0.00000000   -3562.22290039
As       0.00000000       0.00000000       0.41515152       0.00000000       0.00000000    3562.22290039
2
Properties=species:S:1:pos:R:3:forces:R:3 energy=570.3157459570166 pbc="F F F"
As       0.00000000       0.00000000       0.00000000       0.00000000       0.00000000   -2432.49414062
As       0.00000000       0.00000000       0.47393939       0.00000000       0.00000000    2432.49414062
2
Properties=species:S:1:pos:R:3:forces:R:3 energy=445.93568007706165 pbc="F F F"
As       0.00000000       0.00000000       0.00000000       0.00000000       0.00000000   -1841.03857422
As       0.00000000       0.00000000       0.53272727       0.00000000       0.00000000    1841.03857422
2
Properties=species:S:1:pos:R:3:forces:R:3 energy=352.1135671064766 pbc="F F F"
As       0.00000000       0.00000000       0.00000000       0.00000000       0.00000000   -1352.12597656
As       0.00000000       0.00000000       0.59151515       0.00000000       0.00000000    1352.12597656
2
Properties=species:S:1:pos:R:3:forces:R:3 energy=286.11729036821725 pbc="F F F"
As       0.00000000       0.00000000       0.00000000       0.00000000       0.00000000    -934.98132324
As       0.00000000       0.00000000       0.65030303       0.00000000       0.00000000     934.98132324
2
Properties=species:S:1:pos:R:3:forces:R:3 energy=237.17885975948246 pbc="F F F"
As       0.00000000       0.00000000       0.00000000       0.00000000       0.00000000    -766.14501953
As       0.00000000       0.00000000       0.70909091       0.00000000       0.00000000     766.14501953
2
Properties=species:S:1:pos:R:3:forces:R:3 energy=196.5905574196105 pbc="F F F"
As       0.00000000       0.00000000       0.00000000       0.00000000       0.00000000    -621.01428223
As       0.00000000       0.00000000       0.76787879       0.00000000       0.00000000     621.01428223
2
Properties=species:S:1:pos:R:3:forces:R:3 energy=163.5511291141542 pbc="F F F"
As       0.00000000       0.00000000       0.00000000       0.00000000       0.00000000    -505.42221069
As       0.00000000       0.00000000       0.82666667       0.00000000       0.00000000     505.42221069
2
Properties=species:S:1:pos:R:3:forces:R:3 energy=136.7169469482722 pbc="F F F"
As       0.00000000       0.00000000       0.00000000       0.00000000       0.00000000    -413.34829712
As       0.00000000       0.00000000       0.88545455       0.00000000       0.00000000     413.34829712
2
Properties=species:S:1:pos:R:3:forces:R:3 energy=114.29254742647701 pbc="F F F"
As       0.00000000       0.00000000       0.00000000       0.00000000       0.00000000    -353.05566406
As       0.00000000       0.00000000       0.94424242       0.00000000       0.00000000     353.05566406
2
Properties=species:S:1:pos:R:3:forces:R:3 energy=94.98648774419914 pbc="F F F"
As       0.00000000       0.00000000       0.00000000       0.00000000       0.00000000    -305.50265503
As       0.00000000       0.00000000       1.00303030       0.00000000       0.00000000     305.50265503
2
Properties=species:S:1:pos:R:3:forces:R:3 energy=78.07542509779762 pbc="F F F"
As       0.00000000       0.00000000       0.00000000       0.00000000       0.00000000    -272.27255249
As       0.00000000       0.00000000       1.06181818       0.00000000       0.00000000     272.27255249
2
Properties=species:S:1:pos:R:3:forces:R:3 energy=62.89078811013915 pbc="F F F"
As       0.00000000       0.00000000       0.00000000       0.00000000       0.00000000    -243.83235168
As       0.00000000       0.00000000       1.12060606       0.00000000       0.00000000     243.83235168
2
Properties=species:S:1:pos:R:3:forces:R:3 energy=49.34399964059662 pbc="F F F"
As       0.00000000       0.00000000       0.00000000       0.00000000       0.00000000    -218.24131775
As       0.00000000       0.00000000       1.17939394       0.00000000       0.00000000     218.24131775
2
Properties=species:S:1:pos:R:3:forces:R:3 energy=37.28969316302086 pbc="F F F"
As       0.00000000       0.00000000       0.00000000       0.00000000       0.00000000    -189.52502441
As       0.00000000       0.00000000       1.23818182       0.00000000       0.00000000     189.52502441
2
Properties=species:S:1:pos:R:3:forces:R:3 energy=27.278497520087104 pbc="F F F"
As       0.00000000       0.00000000       0.00000000       0.00000000       0.00000000    -150.89868164
As       0.00000000       0.00000000       1.29696970       0.00000000       0.00000000     150.89868164
2
Properties=species:S:1:pos:R:3:forces:R:3 energy=19.410529641104482 pbc="F F F"
As       0.00000000       0.00000000       0.00000000       0.00000000       0.00000000    -118.40661621
As       0.00000000       0.00000000       1.35575758       0.00000000       0.00000000     118.40661621
2
Properties=species:S:1:pos:R:3:forces:R:3 energy=13.195348444500809 pbc="F F F"
As       0.00000000       0.00000000       0.00000000       0.00000000       0.00000000     -94.07682800
As       0.00000000       0.00000000       1.41454545       0.00000000       0.00000000      94.07682800
2
Properties=species:S:1:pos:R:3:forces:R:3 energy=8.255270556846783 pbc="F F F"
As       0.00000000       0.00000000       0.00000000       0.00000000       0.00000000     -74.62711334
As       0.00000000       0.00000000       1.47333333       0.00000000       0.00000000      74.62711334
2
Properties=species:S:1:pos:R:3:forces:R:3 energy=4.35569241308868 pbc="F F F"
As       0.00000000       0.00000000       0.00000000       0.00000000       0.00000000     -58.53968430
As       0.00000000       0.00000000       1.53212121       0.00000000       0.00000000      58.53968430
2
Properties=species:S:1:pos:R:3:forces:R:3 energy=1.3170365469046124 pbc="F F F"
As       0.00000000       0.00000000       0.00000000       0.00000000       0.00000000     -45.28601837
As       0.00000000       0.00000000       1.59090909       0.00000000       0.00000000      45.28601837
2
Properties=species:S:1:pos:R:3:forces:R:3 energy=-1.0190842908687663 pbc="F F F"
As       0.00000000       0.00000000       0.00000000       0.00000000       0.00000000     -34.59359741
As       0.00000000       0.00000000       1.64969697       0.00000000       0.00000000      34.59359741
2
Properties=species:S:1:pos:R:3:forces:R:3 energy=-2.7941894289924343 pbc="F F F"
As       0.00000000       0.00000000       0.00000000       0.00000000       0.00000000     -26.13478279
As       0.00000000       0.00000000       1.70848485       0.00000000       0.00000000      26.13478279
2
Properties=species:S:1:pos:R:3:forces:R:3 energy=-4.127444954233038 pbc="F F F"
As       0.00000000       0.00000000       0.00000000       0.00000000       0.00000000     -19.49021339
As       0.00000000       0.00000000       1.76727273       0.00000000       0.00000000      19.49021339
2
Properties=species:S:1:pos:R:3:forces:R:3 energy=-5.113249487998727 pbc="F F F"
As       0.00000000       0.00000000       0.00000000       0.00000000       0.00000000     -14.25149918
As       0.00000000       0.00000000       1.82606061       0.00000000       0.00000000      14.25149918
2
Properties=species:S:1:pos:R:3:forces:R:3 energy=-5.8241610349909685 pbc="F F F"
As       0.00000000       0.00000000       0.00000000       0.00000000       0.00000000     -10.09199333
As       0.00000000       0.00000000       1.88484848       0.00000000       0.00000000      10.09199333
2
Properties=species:S:1:pos:R:3:forces:R:3 energy=-6.316349784835082 pbc="F F F"
As       0.00000000       0.00000000       0.00000000       0.00000000       0.00000000      -6.77839279
As       0.00000000       0.00000000       1.94363636       0.00000000       0.00000000       6.77839279
2
Properties=species:S:1:pos:R:3:forces:R:3 energy=-6.634541326844133 pbc="F F F"
As       0.00000000       0.00000000       0.00000000       0.00000000       0.00000000      -4.15029430
As       0.00000000       0.00000000       2.00242424       0.00000000       0.00000000       4.15029430
2
Properties=species:S:1:pos:R:3:forces:R:3 energy=-6.81544696268207 pbc="F F F"
As       0.00000000       0.00000000       0.00000000       0.00000000       0.00000000      -2.09057140
As       0.00000000       0.00000000       2.06121212       0.00000000       0.00000000       2.09057140
2
Properties=species:S:1:pos:R:3:forces:R:3 energy=-6.88960572513804 pbc="F F F"
As       0.00000000       0.00000000       0.00000000       0.00000000       0.00000000      -0.50394446
As       0.00000000       0.00000000       2.12000000       0.00000000       0.00000000       0.50394446
2
Properties=species:S:1:pos:R:3:forces:R:3 energy=-6.882329033718477 pbc="F F F"
As       0.00000000       0.00000000       0.00000000       0.00000000       0.00000000       0.69311738
As       0.00000000       0.00000000       2.17878788       0.00000000       0.00000000      -0.69311738
2
Properties=species:S:1:pos:R:3:forces:R:3 energy=-6.814264281322055 pbc="F F F"
As       0.00000000       0.00000000       0.00000000       0.00000000       0.00000000       1.57601964
As       0.00000000       0.00000000       2.23757576       0.00000000       0.00000000      -1.57601964
2
Properties=species:S:1:pos:R:3:forces:R:3 energy=-6.701838356153257 pbc="F F F"
As       0.00000000       0.00000000       0.00000000       0.00000000       0.00000000       2.21310663
As       0.00000000       0.00000000       2.29636364       0.00000000       0.00000000      -2.21310663
2
Properties=species:S:1:pos:R:3:forces:R:3 energy=-6.557684426818081 pbc="F F F"
As       0.00000000       0.00000000       0.00000000       0.00000000       0.00000000       2.66477108
As       0.00000000       0.00000000       2.35515152       0.00000000       0.00000000      -2.66477108
2
Properties=species:S:1:pos:R:3:forces:R:3 energy=-6.391167258481273 pbc="F F F"
As       0.00000000       0.00000000       0.00000000       0.00000000       0.00000000       2.98129559
As       0.00000000       0.00000000       2.41393939       0.00000000       0.00000000      -2.98129559
2
Properties=species:S:1:pos:R:3:forces:R:3 energy=-6.209053081878564 pbc="F F F"
As       0.00000000       0.00000000       0.00000000       0.00000000       0.00000000       3.20052385
As       0.00000000       0.00000000       2.47272727       0.00000000       0.00000000      -3.20052385
2
Properties=species:S:1:pos:R:3:forces:R:3 energy=-6.016286018922596 pbc="F F F"
As       0.00000000       0.00000000       0.00000000       0.00000000       0.00000000       3.34666777
As       0.00000000       0.00000000       2.53151515       0.00000000       0.00000000      -3.34666777
2
Properties=species:S:1:pos:R:3:forces:R:3 energy=-5.816764102667752 pbc="F F F"
As       0.00000000       0.00000000       0.00000000       0.00000000       0.00000000       3.43140507
As       0.00000000       0.00000000       2.59030303       0.00000000       0.00000000      -3.43140507
2
Properties=species:S:1:pos:R:3:forces:R:3 energy=-5.613982660517287 pbc="F F F"
As       0.00000000       0.00000000       0.00000000       0.00000000       0.00000000       3.45756841
As       0.00000000       0.00000000       2.64909091       0.00000000       0.00000000      -3.45756841
2
Properties=species:S:1:pos:R:3:forces:R:3 energy=-5.411392767389571 pbc="F F F"
As       0.00000000       0.00000000       0.00000000       0.00000000       0.00000000       3.42487049
As       0.00000000       0.00000000       2.70787879       0.00000000       0.00000000      -3.42487049
2
Properties=species:S:1:pos:R:3:forces:R:3 energy=-5.212416475836902 pbc="F F F"
As       0.00000000       0.00000000       0.00000000       0.00000000       0.00000000       3.33541179
As       0.00000000       0.00000000       2.76666667       0.00000000       0.00000000      -3.33541179
2
Properties=species:S:1:pos:R:3:forces:R:3 energy=-5.02020421498207 pbc="F F F"
As       0.00000000       0.00000000       0.00000000       0.00000000       0.00000000       3.19634080
As       0.00000000       0.00000000       2.82545455       0.00000000       0.00000000      -3.19634080
2
Properties=species:S:1:pos:R:3:forces:R:3 energy=-4.837356101886365 pbc="F F F"
As       0.00000000       0.00000000       0.00000000       0.00000000       0.00000000       3.01887107
As       0.00000000       0.00000000       2.88424242       0.00000000       0.00000000      -3.01887107
2
Properties=species:S:1:pos:R:3:forces:R:3 energy=-4.665766315397803 pbc="F F F"
As       0.00000000       0.00000000       0.00000000       0.00000000       0.00000000       2.81543326
As       0.00000000       0.00000000       2.94303030       0.00000000       0.00000000      -2.81543326
2
Properties=species:S:1:pos:R:3:forces:R:3 energy=-4.506615816815541 pbc="F F F"
As       0.00000000       0.00000000       0.00000000       0.00000000       0.00000000       2.59735250
As       0.00000000       0.00000000       3.00181818       0.00000000       0.00000000      -2.59735250
2
Properties=species:S:1:pos:R:3:forces:R:3 energy=-4.360483321272509 pbc="F F F"
As       0.00000000       0.00000000       0.00000000       0.00000000       0.00000000       2.37393999
As       0.00000000       0.00000000       3.06060606       0.00000000       0.00000000      -2.37393999
2
Properties=species:S:1:pos:R:3:forces:R:3 energy=-4.227465223432326 pbc="F F F"
As       0.00000000       0.00000000       0.00000000       0.00000000       0.00000000       2.15212512
As       0.00000000       0.00000000       3.11939394       0.00000000       0.00000000      -2.15212512
2
Properties=species:S:1:pos:R:3:forces:R:3 energy=-4.1073217076048225 pbc="F F F"
As       0.00000000       0.00000000       0.00000000       0.00000000       0.00000000       1.93656504
As       0.00000000       0.00000000       3.17818182       0.00000000       0.00000000      -1.93656504
2
Properties=species:S:1:pos:R:3:forces:R:3 energy=-3.9995873771380652 pbc="F F F"
As       0.00000000       0.00000000       0.00000000       0.00000000       0.00000000       1.73042393
As       0.00000000       0.00000000       3.23696970       0.00000000       0.00000000      -1.73042393
2
Properties=species:S:1:pos:R:3:forces:R:3 energy=-3.9036383731991076 pbc="F F F"
As       0.00000000       0.00000000       0.00000000       0.00000000       0.00000000       1.53591359
As       0.00000000       0.00000000       3.29575758       0.00000000       0.00000000      -1.53591359
2
Properties=species:S:1:pos:R:3:forces:R:3 energy=-3.8187460160081623 pbc="F F F"
As       0.00000000       0.00000000       0.00000000       0.00000000       0.00000000       1.35439384
As       0.00000000       0.00000000       3.35454545       0.00000000       0.00000000      -1.35439384
2
Properties=species:S:1:pos:R:3:forces:R:3 energy=-3.7441275614364153 pbc="F F F"
As       0.00000000       0.00000000       0.00000000       0.00000000       0.00000000       1.18644619
As       0.00000000       0.00000000       3.41333333       0.00000000       0.00000000      -1.18644619
2
Properties=species:S:1:pos:R:3:forces:R:3 energy=-3.678981909267848 pbc="F F F"
As       0.00000000       0.00000000       0.00000000       0.00000000       0.00000000       1.03207064
As       0.00000000       0.00000000       3.47212121       0.00000000       0.00000000      -1.03207064
2
Properties=species:S:1:pos:R:3:forces:R:3 energy=-3.6225217728765355 pbc="F F F"
As       0.00000000       0.00000000       0.00000000       0.00000000       0.00000000       0.89093977
As       0.00000000       0.00000000       3.53090909       0.00000000       0.00000000      -0.89093977
2
Properties=species:S:1:pos:R:3:forces:R:3 energy=-3.5739790098067377 pbc="F F F"
As       0.00000000       0.00000000       0.00000000       0.00000000       0.00000000       0.76258749
As       0.00000000       0.00000000       3.58969697       0.00000000       0.00000000      -0.76258749
2
Properties=species:S:1:pos:R:3:forces:R:3 energy=-3.5326181964648633 pbc="F F F"
As       0.00000000       0.00000000       0.00000000       0.00000000       0.00000000       0.64656132
As       0.00000000       0.00000000       3.64848485       0.00000000       0.00000000      -0.64656132
2
Properties=species:S:1:pos:R:3:forces:R:3 energy=-3.4977264378131756 pbc="F F F"
As       0.00000000       0.00000000       0.00000000       0.00000000       0.00000000       0.54242253
As       0.00000000       0.00000000       3.70727273       0.00000000       0.00000000      -0.54242253
2
Properties=species:S:1:pos:R:3:forces:R:3 energy=-3.468617464835148 pbc="F F F"
As       0.00000000       0.00000000       0.00000000       0.00000000       0.00000000       0.44974899
As       0.00000000       0.00000000       3.76606061       0.00000000       0.00000000      -0.44974899
2
Properties=species:S:1:pos:R:3:forces:R:3 energy=-3.4446312709079856 pbc="F F F"
As       0.00000000       0.00000000       0.00000000       0.00000000       0.00000000       0.36807832
As       0.00000000       0.00000000       3.82484848       0.00000000       0.00000000      -0.36807832
2
Properties=species:S:1:pos:R:3:forces:R:3 energy=-3.4251351233296563 pbc="F F F"
As       0.00000000       0.00000000       0.00000000       0.00000000       0.00000000       0.29686639
As       0.00000000       0.00000000       3.88363636       0.00000000       0.00000000      -0.29686639
2
Properties=species:S:1:pos:R:3:forces:R:3 energy=-3.409533662430413 pbc="F F F"
As       0.00000000       0.00000000       0.00000000       0.00000000       0.00000000       0.23549129
As       0.00000000       0.00000000       3.94242424       0.00000000       0.00000000      -0.23549129
2
Properties=species:S:1:pos:R:3:forces:R:3 energy=-3.39726859979777 pbc="F F F"
As       0.00000000       0.00000000       0.00000000       0.00000000       0.00000000       0.18325724
As       0.00000000       0.00000000       4.00121212       0.00000000       0.00000000      -0.18325724
2
Properties=species:S:1:pos:R:3:forces:R:3 energy=-3.387822701700263 pbc="F F F"
As       0.00000000       0.00000000       0.00000000       0.00000000       0.00000000       0.13942985
As       0.00000000       0.00000000       4.06000000       0.00000000       0.00000000      -0.13942985
2
Properties=species:S:1:pos:R:3:forces:R:3 energy=-3.3807244307461417 pbc="F F F"
As       0.00000000       0.00000000       0.00000000       0.00000000       0.00000000       0.10327044
As       0.00000000       0.00000000       4.11878788       0.00000000       0.00000000      -0.10327044
2
Properties=species:S:1:pos:R:3:forces:R:3 energy=-3.375544783085401 pbc="F F F"
As       0.00000000       0.00000000       0.00000000       0.00000000       0.00000000       0.07403746
As       0.00000000       0.00000000       4.17757576       0.00000000       0.00000000      -0.07403746
2
Properties=species:S:1:pos:R:3:forces:R:3 energy=-3.371898110619478 pbc="F F F"
As       0.00000000       0.00000000       0.00000000       0.00000000       0.00000000       0.05099538
As       0.00000000       0.00000000       4.23636364       0.00000000       0.00000000      -0.05099538
2
Properties=species:S:1:pos:R:3:forces:R:3 energy=-3.369442253297788 pbc="F F F"
As       0.00000000       0.00000000       0.00000000       0.00000000       0.00000000       0.03339373
As       0.00000000       0.00000000       4.29515152       0.00000000       0.00000000      -0.03339373
2
Properties=species:S:1:pos:R:3:forces:R:3 energy=-3.3678801367717806 pbc="F F F"
As       0.00000000       0.00000000       0.00000000       0.00000000       0.00000000       0.02046381
As       0.00000000       0.00000000       4.35393939       0.00000000       0.00000000      -0.02046381
2
Properties=species:S:1:pos:R:3:forces:R:3 energy=-3.3669600860892586 pbc="F F F"
As       0.00000000       0.00000000       0.00000000       0.00000000       0.00000000       0.01141697
As       0.00000000       0.00000000       4.41272727       0.00000000       0.00000000      -0.01141697
2
Properties=species:S:1:pos:R:3:forces:R:3 energy=-3.366477051049403 pbc="F F F"
As       0.00000000       0.00000000       0.00000000       0.00000000       0.00000000       0.00546863
As       0.00000000       0.00000000       4.47151515       0.00000000       0.00000000      -0.00546863
2
Properties=species:S:1:pos:R:3:forces:R:3 energy=-3.366271025219749 pbc="F F F"
As       0.00000000       0.00000000       0.00000000       0.00000000       0.00000000       0.00186915
As       0.00000000       0.00000000       4.53030303       0.00000000       0.00000000      -0.00186915
2
Properties=species:S:1:pos:R:3:forces:R:3 energy=-3.3662246807573273 pbc="F F F"
As       0.00000000       0.00000000       0.00000000       0.00000000       0.00000000      -0.00006108
As       0.00000000       0.00000000       4.58909091       0.00000000       0.00000000       0.00006108
2
Properties=species:S:1:pos:R:3:forces:R:3 energy=-3.3662571489347624 pbc="F F F"
As       0.00000000       0.00000000       0.00000000       0.00000000       0.00000000      -0.00090013
As       0.00000000       0.00000000       4.64787879       0.00000000       0.00000000       0.00090013
2
Properties=species:S:1:pos:R:3:forces:R:3 energy=-3.3663182537448653 pbc="F F F"
As       0.00000000       0.00000000       0.00000000       0.00000000       0.00000000      -0.00110852
As       0.00000000       0.00000000       4.70666667       0.00000000       0.00000000       0.00110852
2
Properties=species:S:1:pos:R:3:forces:R:3 energy=-3.366382126868063 pbc="F F F"
As       0.00000000       0.00000000       0.00000000       0.00000000       0.00000000      -0.00103524
As       0.00000000       0.00000000       4.76545455       0.00000000       0.00000000       0.00103524
2
Properties=species:S:1:pos:R:3:forces:R:3 energy=-3.366439589365244 pbc="F F F"
As       0.00000000       0.00000000       0.00000000       0.00000000       0.00000000      -0.00093619
As       0.00000000       0.00000000       4.82424242       0.00000000       0.00000000       0.00093619
2
Properties=species:S:1:pos:R:3:forces:R:3 energy=-3.3664950965857408 pbc="F F F"
As       0.00000000       0.00000000       0.00000000       0.00000000       0.00000000      -0.00099049
As       0.00000000       0.00000000       4.88303030       0.00000000       0.00000000       0.00099049
2
Properties=species:S:1:pos:R:3:forces:R:3 energy=-3.3665612505802334 pbc="F F F"
As       0.00000000       0.00000000       0.00000000       0.00000000       0.00000000      -0.00130753
As       0.00000000       0.00000000       4.94181818       0.00000000       0.00000000       0.00130753
2
Properties=species:S:1:pos:R:3:forces:R:3 energy=-3.366654361222631 pbc="F F F"
As       0.00000000       0.00000000       0.00000000       0.00000000       0.00000000      -0.00189853
As       0.00000000       0.00000000       5.00060606       0.00000000       0.00000000       0.00189853
2
Properties=species:S:1:pos:R:3:forces:R:3 energy=-3.3667875621655905 pbc="F F F"
As       0.00000000       0.00000000       0.00000000       0.00000000       0.00000000      -0.00264306
As       0.00000000       0.00000000       5.05939394       0.00000000       0.00000000       0.00264306
2
Properties=species:S:1:pos:R:3:forces:R:3 energy=-3.366962753710071 pbc="F F F"
As       0.00000000       0.00000000       0.00000000       0.00000000       0.00000000      -0.00326462
As       0.00000000       0.00000000       5.11818182       0.00000000       0.00000000       0.00326462
2
Properties=species:S:1:pos:R:3:forces:R:3 energy=-3.367161317943989 pbc="F F F"
As       0.00000000       0.00000000       0.00000000       0.00000000       0.00000000      -0.00336607
As       0.00000000       0.00000000       5.17696970       0.00000000       0.00000000       0.00336607
2
Properties=species:S:1:pos:R:3:forces:R:3 energy=-3.3673396901595294 pbc="F F F"
As       0.00000000       0.00000000       0.00000000       0.00000000       0.00000000      -0.00250052
As       0.00000000       0.00000000       5.23575758       0.00000000       0.00000000       0.00250052
2
Properties=species:S:1:pos:R:3:forces:R:3 energy=-3.367427423786065 pbc="F F F"
As       0.00000000       0.00000000       0.00000000       0.00000000       0.00000000      -0.00022374
As       0.00000000       0.00000000       5.29454545       0.00000000       0.00000000       0.00022374
2
Properties=species:S:1:pos:R:3:forces:R:3 energy=-3.3673344308545956 pbc="F F F"
As       0.00000000       0.00000000       0.00000000       0.00000000       0.00000000       0.00359853
As       0.00000000       0.00000000       5.35333333       0.00000000       0.00000000      -0.00359853
2
Properties=species:S:1:pos:R:3:forces:R:3 energy=-3.3670055869799627 pbc="F F F"
As       0.00000000       0.00000000       0.00000000       0.00000000       0.00000000       0.00720623
As       0.00000000       0.00000000       5.41212121       0.00000000       0.00000000      -0.00720623
2
Properties=species:S:1:pos:R:3:forces:R:3 energy=-3.366590982025215 pbc="F F F"
As       0.00000000       0.00000000       0.00000000       0.00000000       0.00000000       0.00563227
As       0.00000000       0.00000000       5.47090909       0.00000000       0.00000000      -0.00563227
2
Properties=species:S:1:pos:R:3:forces:R:3 energy=-3.3664662229027433 pbc="F F F"
As       0.00000000       0.00000000       0.00000000       0.00000000       0.00000000      -0.00169221
As       0.00000000       0.00000000       5.52969697       0.00000000       0.00000000       0.00169221
2
Properties=species:S:1:pos:R:3:forces:R:3 energy=-3.3667157995203003 pbc="F F F"
As       0.00000000       0.00000000       0.00000000       0.00000000       0.00000000      -0.00564851
As       0.00000000       0.00000000       5.58848485       0.00000000       0.00000000       0.00564851
2
Properties=species:S:1:pos:R:3:forces:R:3 energy=-3.3670336745289364 pbc="F F F"
As       0.00000000       0.00000000       0.00000000       0.00000000       0.00000000      -0.00507693
As       0.00000000       0.00000000       5.64727273       0.00000000       0.00000000       0.00507693
2
Properties=species:S:1:pos:R:3:forces:R:3 energy=-3.3674061212611472 pbc="F F F"
As       0.00000000       0.00000000       0.00000000       0.00000000       0.00000000      -0.00914264
As       0.00000000       0.00000000       5.70606061       0.00000000       0.00000000       0.00914264
2
Properties=species:S:1:pos:R:3:forces:R:3 energy=-3.368298912013801 pbc="F F F"
As       0.00000000       0.00000000       0.00000000       0.00000000       0.00000000      -0.02195513
As       0.00000000       0.00000000       5.76484848       0.00000000       0.00000000       0.02195513
2
Properties=species:S:1:pos:R:3:forces:R:3 energy=-3.369870533569281 pbc="F F F"
As       0.00000000       0.00000000       0.00000000       0.00000000       0.00000000      -0.02884713
As       0.00000000       0.00000000       5.82363636       0.00000000       0.00000000       0.02884713
2
Properties=species:S:1:pos:R:3:forces:R:3 energy=-3.371318198301387 pbc="F F F"
As       0.00000000       0.00000000       0.00000000       0.00000000       0.00000000      -0.01820792
As       0.00000000       0.00000000       5.88242424       0.00000000       0.00000000       0.01820792
2
Properties=species:S:1:pos:R:3:forces:R:3 energy=-3.37190665400227 pbc="F F F"
As       0.00000000       0.00000000       0.00000000       0.00000000       0.00000000      -0.00225009
As       0.00000000       0.00000000       5.94121212       0.00000000       0.00000000       0.00225009
2
Properties=species:S:1:pos:R:3:forces:R:3 energy=-3.3717759234576965 pbc="F F F"
As       0.00000000       0.00000000       0.00000000       0.00000000       0.00000000       0.00440468
As       0.00000000       0.00000000       6.00000000       0.00000000       0.00000000      -0.00440468
