2
Properties=species:S:1:pos:R:3:forces:R:3 energy=5354.304088204159 pbc="F F F"
As       0.00000000       0.00000000       0.00000000       0.00000000       0.00000000  -76453.37500000
As       0.00000000       0.00000000       0.18000000       0.00000000       0.00000000   76453.37500000
2
Properties=species:S:1:pos:R:3:forces:R:3 energy=2589.925914376034 pbc="F F F"
As       0.00000000       0.00000000       0.00000000       0.00000000       0.00000000  -27481.14843750
As       0.00000000       0.00000000       0.23878788       0.00000000       0.00000000   27481.14843750
2
Properties=species:S:1:pos:R:3:forces:R:3 energy=1511.4206653525964 pbc="F F F"
As       0.00000000       0.00000000       0.00000000       0.00000000       0.00000000  -11857.91406250
As       0.00000000       0.00000000       0.29757576       0.00000000       0.00000000   11857.91406250
2
Properties=species:S:1:pos:R:3:forces:R:3 energy=1013.1834827417446 pbc="F F F"
As       0.00000000       0.00000000       0.00000000       0.00000000       0.00000000   -5981.12695312
As       0.00000000       0.00000000       0.35636364       0.00000000       0.00000000    5981.12695312
2
Properties=species:S:1:pos:R:3:forces:R:3 energy=742.561595541049 pbc="F F F"
As       0.00000000       0.00000000       0.00000000       0.00000000       0.00000000   -3562.22338867
As       0.00000000       0.00000000       0.41515152       0.00000000       0.00000000    3562.22338867
2
Properties=species:S:1:pos:R:3:forces:R:3 energy=570.3159290624853 pbc="F F F"
As       0.00000000       0.00000000       0.00000000       0.00000000       0.00000000   -2432.49511719
As       0.00000000       0.00000000       0.47393939       0.00000000       0.00000000    2432.49511719
2
Properties=species:S:1:pos:R:3:forces:R:3 energy=445.9363514637804 pbc="F F F"
As       0.00000000       0.00000000       0.00000000       0.00000000       0.00000000   -1841.03979492
As       0.00000000       0.00000000       0.53272727       0.00000000       0.00000000    1841.03979492
2
Properties=species:S:1:pos:R:3:forces:R:3 energy=352.11353658889846 pbc="F F F"
As       0.00000000       0.00000000       0.00000000       0.00000000       0.00000000   -1352.12536621
As       0.00000000       0.00000000       0.59151515       0.00000000       0.00000000    1352.12536621
2
Properties=species:S:1:pos:R:3:forces:R:3 energy=286.117229333061 pbc="F F F"
As       0.00000000       0.00000000       0.00000000       0.00000000       0.00000000    -934.98150635
As       0.00000000       0.00000000       0.65030303       0.00000000       0.00000000     934.98150635
2
Properties=species:S:1:pos:R:3:forces:R:3 energy=237.17895131221684 pbc="F F F"
As       0.00000000       0.00000000       0.00000000       0.00000000       0.00000000    -766.14471436
As       0.00000000       0.00000000       0.70909091       0.00000000       0.00000000     766.14471436
2
Properties=species:S:1:pos:R:3:forces:R:3 energy=196.5903895729308 pbc="F F F"
As       0.00000000       0.00000000       0.00000000       0.00000000       0.00000000    -621.01403809
As       0.00000000       0.00000000       0.76787879       0.00000000       0.00000000     621.01403809
2
Properties=species:S:1:pos:R:3:forces:R:3 energy=163.55122066688858 pbc="F F F"
As       0.00000000       0.00000000       0.00000000       0.00000000       0.00000000    -505.42312622
As       0.00000000       0.00000000       0.82666667       0.00000000       0.00000000     505.42312622
2
Properties=species:S:1:pos:R:3:forces:R:3 energy=136.7171147949519 pbc="F F F"
As       0.00000000       0.00000000       0.00000000       0.00000000       0.00000000    -413.34899902
As       0.00000000       0.00000000       0.88545455       0.00000000       0.00000000     413.34899902
2
Properties=species:S:1:pos:R:3:forces:R:3 energy=114.2925932028442 pbc="F F F"
As       0.00000000       0.00000000       0.00000000       0.00000000       0.00000000    -353.05587769
As       0.00000000       0.00000000       0.94424242       0.00000000       0.00000000     353.05587769
2
Properties=species:S:1:pos:R:3:forces:R:3 energy=94.98651063238273 pbc="F F F"
As       0.00000000       0.00000000       0.00000000       0.00000000       0.00000000    -305.50280762
As       0.00000000       0.00000000       1.00303030       0.00000000       0.00000000     305.50280762
2
Properties=species:S:1:pos:R:3:forces:R:3 energy=78.07547087416481 pbc="F F F"
As       0.00000000       0.00000000       0.00000000       0.00000000       0.00000000    -272.27276611
As       0.00000000       0.00000000       1.06181818       0.00000000       0.00000000     272.27276611
2
Properties=species:S:1:pos:R:3:forces:R:3 energy=62.890772851350086 pbc="F F F"
As       0.00000000       0.00000000       0.00000000       0.00000000       0.00000000    -243.83222961
As       0.00000000       0.00000000       1.12060606       0.00000000       0.00000000     243.83222961
2
Properties=species:S:1:pos:R:3:forces:R:3 energy=49.344014899385684 pbc="F F F"
As       0.00000000       0.00000000       0.00000000       0.00000000       0.00000000    -218.24139404
As       0.00000000       0.00000000       1.17939394       0.00000000       0.00000000     218.24139404
2
Properties=species:S:1:pos:R:3:forces:R:3 energy=37.289685533626326 pbc="F F F"
As       0.00000000       0.00000000       0.00000000       0.00000000       0.00000000    -189.52497864
As       0.00000000       0.00000000       1.23818182       0.00000000       0.00000000     189.52497864
2
Properties=species:S:1:pos:R:3:forces:R:3 energy=27.278505149481635 pbc="F F F"
As       0.00000000       0.00000000       0.00000000       0.00000000       0.00000000    -150.89875793
As       0.00000000       0.00000000       1.29696970       0.00000000       0.00000000     150.89875793
2
Properties=species:S:1:pos:R:3:forces:R:3 energy=19.410525826407216 pbc="F F F"
As       0.00000000       0.00000000       0.00000000       0.00000000       0.00000000    -118.40663147
As       0.00000000       0.00000000       1.35575758       0.00000000       0.00000000     118.40663147
2
Properties=species:S:1:pos:R:3:forces:R:3 energy=13.19535607389534 pbc="F F F"
As       0.00000000       0.00000000       0.00000000       0.00000000       0.00000000     -94.07685089
As       0.00000000       0.00000000       1.41454545       0.00000000       0.00000000      94.07685089
2
Properties=species:S:1:pos:R:3:forces:R:3 energy=8.255263881126568 pbc="F F F"
As       0.00000000       0.00000000       0.00000000       0.00000000       0.00000000     -74.62709808
As       0.00000000       0.00000000       1.47333333       0.00000000       0.00000000      74.62709808
2
Properties=species:S:1:pos:R:3:forces:R:3 energy=4.35569241308868 pbc="F F F"
As       0.00000000       0.00000000       0.00000000       0.00000000       0.00000000     -58.53969193
As       0.00000000       0.00000000       1.53212121       0.00000000       0.00000000      58.53969193
2
Properties=species:S:1:pos:R:3:forces:R:3 energy=1.3170365469046124 pbc="F F F"
As       0.00000000       0.00000000       0.00000000       0.00000000       0.00000000     -45.28601837
As       0.00000000       0.00000000       1.59090909       0.00000000       0.00000000      45.28601837
2
Properties=species:S:1:pos:R:3:forces:R:3 energy=-1.0190821482693766 pbc="F F F"
As       0.00000000       0.00000000       0.00000000       0.00000000       0.00000000     -34.59360886
As       0.00000000       0.00000000       1.64969697       0.00000000       0.00000000      34.59360886
2
Properties=species:S:1:pos:R:3:forces:R:3 energy=-2.7941868095558866 pbc="F F F"
As       0.00000000       0.00000000       0.00000000       0.00000000       0.00000000     -26.13479233
As       0.00000000       0.00000000       1.70848485       0.00000000       0.00000000      26.13479233
2
Properties=species:S:1:pos:R:3:forces:R:3 energy=-4.127444954233038 pbc="F F F"
As       0.00000000       0.00000000       0.00000000       0.00000000       0.00000000     -19.49021721
As       0.00000000       0.00000000       1.76727273       0.00000000       0.00000000      19.49021721
2
Properties=species:S:1:pos:R:3:forces:R:3 energy=-5.113249522844772 pbc="F F F"
As       0.00000000       0.00000000       0.00000000       0.00000000       0.00000000     -14.25150967
As       0.00000000       0.00000000       1.82606061       0.00000000       0.00000000      14.25150967
2
Properties=species:S:1:pos:R:3:forces:R:3 energy=-5.824161988665285 pbc="F F F"
As       0.00000000       0.00000000       0.00000000       0.00000000       0.00000000     -10.09199619
As       0.00000000       0.00000000       1.88484848       0.00000000       0.00000000      10.09199619
2
Properties=species:S:1:pos:R:3:forces:R:3 energy=-6.316350258504418 pbc="F F F"
As       0.00000000       0.00000000       0.00000000       0.00000000       0.00000000      -6.77838945
As       0.00000000       0.00000000       1.94363636       0.00000000       0.00000000       6.77838945
2
Properties=species:S:1:pos:R:3:forces:R:3 energy=-6.634542757355607 pbc="F F F"
As       0.00000000       0.00000000       0.00000000       0.00000000       0.00000000      -4.15030003
As       0.00000000       0.00000000       2.00242424       0.00000000       0.00000000       4.15030003
2
Properties=species:S:1:pos:R:3:forces:R:3 energy=-6.815447445854872 pbc="F F F"
As       0.00000000       0.00000000       0.00000000       0.00000000       0.00000000      -2.09057379
As       0.00000000       0.00000000       2.06121212       0.00000000       0.00000000       2.09057379
2
Properties=species:S:1:pos:R:3:forces:R:3 energy=-6.889606201975198 pbc="F F F"
As       0.00000000       0.00000000       0.00000000       0.00000000       0.00000000      -0.50394374
As       0.00000000       0.00000000       2.12000000       0.00000000       0.00000000       0.50394374
2
Properties=species:S:1:pos:R:3:forces:R:3 energy=-6.882329033718477 pbc="F F F"
As       0.00000000       0.00000000       0.00000000       0.00000000       0.00000000       0.69312000
As       0.00000000       0.00000000       2.17878788       0.00000000       0.00000000      -0.69312000
2
Properties=species:S:1:pos:R:3:forces:R:3 energy=-6.814264281322055 pbc="F F F"
As       0.00000000       0.00000000       0.00000000       0.00000000       0.00000000       1.57601988
As       0.00000000       0.00000000       2.23757576       0.00000000       0.00000000      -1.57601988
2
Properties=species:S:1:pos:R:3:forces:R:3 energy=-6.701838836158237 pbc="F F F"
As       0.00000000       0.00000000       0.00000000       0.00000000       0.00000000       2.21310759
As       0.00000000       0.00000000       2.29636364       0.00000000       0.00000000      -2.21310759
2
Properties=species:S:1:pos:R:3:forces:R:3 energy=-6.557684391972038 pbc="F F F"
As       0.00000000       0.00000000       0.00000000       0.00000000       0.00000000       2.66477180
As       0.00000000       0.00000000       2.35515152       0.00000000       0.00000000      -2.66477180
2
Properties=species:S:1:pos:R:3:forces:R:3 energy=-6.391167258481273 pbc="F F F"
As       0.00000000       0.00000000       0.00000000       0.00000000       0.00000000       2.98129439
As       0.00000000       0.00000000       2.41393939       0.00000000       0.00000000      -2.98129439
2
Properties=species:S:1:pos:R:3:forces:R:3 energy=-6.209054035552881 pbc="F F F"
As       0.00000000       0.00000000       0.00000000       0.00000000       0.00000000       3.20052242
As       0.00000000       0.00000000       2.47272727       0.00000000       0.00000000      -3.20052242
2
Properties=species:S:1:pos:R:3:forces:R:3 energy=-6.016285535749793 pbc="F F F"
As       0.00000000       0.00000000       0.00000000       0.00000000       0.00000000       3.34666777
As       0.00000000       0.00000000       2.53151515       0.00000000       0.00000000      -3.34666777
2
Properties=species:S:1:pos:R:3:forces:R:3 energy=-5.816764102667752 pbc="F F F"
As       0.00000000       0.00000000       0.00000000       0.00000000       0.00000000       3.43140388
As       0.00000000       0.00000000       2.59030303       0.00000000       0.00000000      -3.43140388
2
Properties=species:S:1:pos:R:3:forces:R:3 energy=-5.61398122683799 pbc="F F F"
As       0.00000000       0.00000000       0.00000000       0.00000000       0.00000000       3.45756721
As       0.00000000       0.00000000       2.64909091       0.00000000       0.00000000      -3.45756721
2
Properties=species:S:1:pos:R:3:forces:R:3 energy=-5.411391816883077 pbc="F F F"
As       0.00000000       0.00000000       0.00000000       0.00000000       0.00000000       3.42487097
As       0.00000000       0.00000000       2.70787879       0.00000000       0.00000000      -3.42487097
2
Properties=species:S:1:pos:R:3:forces:R:3 energy=-5.212415998999743 pbc="F F F"
As       0.00000000       0.00000000       0.00000000       0.00000000       0.00000000       3.33541226
As       0.00000000       0.00000000       2.76666667       0.00000000       0.00000000      -3.33541226
2
Properties=species:S:1:pos:R:3:forces:R:3 energy=-5.02020421498207 pbc="F F F"
As       0.00000000       0.00000000       0.00000000       0.00000000       0.00000000       3.19634199
As       0.00000000       0.00000000       2.82545455       0.00000000       0.00000000      -3.19634199
2
Properties=species:S:1:pos:R:3:forces:R:3 energy=-4.8373570302181035 pbc="F F F"
As       0.00000000       0.00000000       0.00000000       0.00000000       0.00000000       3.01887274
As       0.00000000       0.00000000       2.88424242       0.00000000       0.00000000      -3.01887274
2
Properties=species:S:1:pos:R:3:forces:R:3 energy=-4.665767269072119 pbc="F F F"
As       0.00000000       0.00000000       0.00000000       0.00000000       0.00000000       2.81543279
As       0.00000000       0.00000000       2.94303030       0.00000000       0.00000000      -2.81543279
2
Properties=species:S:1:pos:R:3:forces:R:3 energy=-4.506615816815541 pbc="F F F"
As       0.00000000       0.00000000       0.00000000       0.00000000       0.00000000       2.59735346
As       0.00000000       0.00000000       3.00181818       0.00000000       0.00000000      -2.59735346
2
Properties=species:S:1:pos:R:3:forces:R:3 energy=-4.360482844435351 pbc="F F F"
As       0.00000000       0.00000000       0.00000000       0.00000000       0.00000000       2.37394142
As       0.00000000       0.00000000       3.06060606       0.00000000       0.00000000      -2.37394142
2
Properties=species:S:1:pos:R:3:forces:R:3 energy=-4.227465700269484 pbc="F F F"
As       0.00000000       0.00000000       0.00000000       0.00000000       0.00000000       2.15212464
As       0.00000000       0.00000000       3.11939394       0.00000000       0.00000000      -2.15212464
2
Properties=species:S:1:pos:R:3:forces:R:3 energy=-4.1073211990894425 pbc="F F F"
As       0.00000000       0.00000000       0.00000000       0.00000000       0.00000000       1.93656421
As       0.00000000       0.00000000       3.17818182       0.00000000       0.00000000      -1.93656421
2
Properties=species:S:1:pos:R:3:forces:R:3 energy=-3.9995873771380652 pbc="F F F"
As       0.00000000       0.00000000       0.00000000       0.00000000       0.00000000       1.73042393
As       0.00000000       0.00000000       3.23696970       0.00000000       0.00000000      -1.73042393
2
Properties=species:S:1:pos:R:3:forces:R:3 energy=-3.9036386116176867 pbc="F F F"
As       0.00000000       0.00000000       0.00000000       0.00000000       0.00000000       1.53591418
As       0.00000000       0.00000000       3.29575758       0.00000000       0.00000000      -1.53591418
2
Properties=species:S:1:pos:R:3:forces:R:3 energy=-3.8187462544267414 pbc="F F F"
As       0.00000000       0.00000000       0.00000000       0.00000000       0.00000000       1.35439372
As       0.00000000       0.00000000       3.35454545       0.00000000       0.00000000      -1.35439372
2
Properties=species:S:1:pos:R:3:forces:R:3 energy=-3.7441275614364153 pbc="F F F"
As       0.00000000       0.00000000       0.00000000       0.00000000       0.00000000       1.18644643
As       0.00000000       0.00000000       3.41333333       0.00000000       0.00000000      -1.18644643
2
Properties=species:S:1:pos:R:3:forces:R:3 energy=-3.67898191243567 pbc="F F F"
As       0.00000000       0.00000000       0.00000000       0.00000000       0.00000000       1.03207135
As       0.00000000       0.00000000       3.47212121       0.00000000       0.00000000      -1.03207135
2
Properties=species:S:1:pos:R:3:forces:R:3 energy=-3.62252177921218 pbc="F F F"
As       0.00000000       0.00000000       0.00000000       0.00000000       0.00000000       0.89093912
As       0.00000000       0.00000000       3.53090909       0.00000000       0.00000000      -0.89093912
2
Properties=species:S:1:pos:R:3:forces:R:3 energy=-3.5739790034710937 pbc="F F F"
As       0.00000000       0.00000000       0.00000000       0.00000000       0.00000000       0.76258749
As       0.00000000       0.00000000       3.58969697       0.00000000       0.00000000      -0.76258749
2
Properties=species:S:1:pos:R:3:forces:R:3 energy=-3.532617973885395 pbc="F F F"
As       0.00000000       0.00000000       0.00000000       0.00000000       0.00000000       0.64655989
As       0.00000000       0.00000000       3.64848485       0.00000000       0.00000000      -0.64655989
2
Properties=species:S:1:pos:R:3:forces:R:3 energy=-3.4977264378131756 pbc="F F F"
As       0.00000000       0.00000000       0.00000000       0.00000000       0.00000000       0.54242337
As       0.00000000       0.00000000       3.70727273       0.00000000       0.00000000      -0.54242337
2
Properties=species:S:1:pos:R:3:forces:R:3 energy=-3.4686174743386147 pbc="F F F"
As       0.00000000       0.00000000       0.00000000       0.00000000       0.00000000       0.44974935
As       0.00000000       0.00000000       3.76606061       0.00000000       0.00000000      -0.44974935
2
Properties=species:S:1:pos:R:3:forces:R:3 energy=-3.44463127724363 pbc="F F F"
As       0.00000000       0.00000000       0.00000000       0.00000000       0.00000000       0.36807892
As       0.00000000       0.00000000       3.82484848       0.00000000       0.00000000      -0.36807892
2
Properties=species:S:1:pos:R:3:forces:R:3 energy=-3.4251353617482354 pbc="F F F"
As       0.00000000       0.00000000       0.00000000       0.00000000       0.00000000       0.29686657
As       0.00000000       0.00000000       3.88363636       0.00000000       0.00000000      -0.29686657
2
Properties=species:S:1:pos:R:3:forces:R:3 energy=-3.4095338945133475 pbc="F F F"
As       0.00000000       0.00000000       0.00000000       0.00000000       0.00000000       0.23549157
As       0.00000000       0.00000000       3.94242424       0.00000000       0.00000000      -0.23549157
2
Properties=species:S:1:pos:R:3:forces:R:3 energy=-3.3972686029655925 pbc="F F F"
As       0.00000000       0.00000000       0.00000000       0.00000000       0.00000000       0.18325755
As       0.00000000       0.00000000       4.00121212       0.00000000       0.00000000      -0.18325755
2
Properties=species:S:1:pos:R:3:forces:R:3 energy=-3.3878226953646187 pbc="F F F"
As       0.00000000       0.00000000       0.00000000       0.00000000       0.00000000       0.13943021
As       0.00000000       0.00000000       4.06000000       0.00000000       0.00000000      -0.13943021
2
Properties=species:S:1:pos:R:3:forces:R:3 energy=-3.3807246628290764 pbc="F F F"
As       0.00000000       0.00000000       0.00000000       0.00000000       0.00000000       0.10326990
As       0.00000000       0.00000000       4.11878788       0.00000000       0.00000000      -0.10326990
2
Properties=species:S:1:pos:R:3:forces:R:3 energy=-3.3755447894210455 pbc="F F F"
As       0.00000000       0.00000000       0.00000000       0.00000000       0.00000000       0.07403763
As       0.00000000       0.00000000       4.17757576       0.00000000       0.00000000      -0.07403763
2
Properties=species:S:1:pos:R:3:forces:R:3 energy=-3.371898118539033 pbc="F F F"
As       0.00000000       0.00000000       0.00000000       0.00000000       0.00000000       0.05099529
As       0.00000000       0.00000000       4.23636364       0.00000000       0.00000000      -0.05099529
2
Properties=species:S:1:pos:R:3:forces:R:3 energy=-3.36944225646561 pbc="F F F"
As       0.00000000       0.00000000       0.00000000       0.00000000       0.00000000       0.03339349
As       0.00000000       0.00000000       4.29515152       0.00000000       0.00000000      -0.03339349
2
Properties=species:S:1:pos:R:3:forces:R:3 energy=-3.367880143107425 pbc="F F F"
As       0.00000000       0.00000000       0.00000000       0.00000000       0.00000000       0.02046347
As       0.00000000       0.00000000       4.35393939       0.00000000       0.00000000      -0.02046347
2
Properties=species:S:1:pos:R:3:forces:R:3 energy=-3.366960337179126 pbc="F F F"
As       0.00000000       0.00000000       0.00000000       0.00000000       0.00000000       0.01141706
As       0.00000000       0.00000000       4.41272727       0.00000000       0.00000000      -0.01141706
2
Properties=species:S:1:pos:R:3:forces:R:3 energy=-3.366477051049403 pbc="F F F"
As       0.00000000       0.00000000       0.00000000       0.00000000       0.00000000       0.00546865
As       0.00000000       0.00000000       4.47151515       0.00000000       0.00000000      -0.00546865
2
Properties=species:S:1:pos:R:3:forces:R:3 energy=-3.3662712668061503 pbc="F F F"
As       0.00000000       0.00000000       0.00000000       0.00000000       0.00000000       0.00186935
As       0.00000000       0.00000000       4.53030303       0.00000000       0.00000000      -0.00186935
2
Properties=species:S:1:pos:R:3:forces:R:3 energy=-3.366224691844705 pbc="F F F"
As       0.00000000       0.00000000       0.00000000       0.00000000       0.00000000      -0.00006141
As       0.00000000       0.00000000       4.58909091       0.00000000       0.00000000       0.00006141
2
Properties=species:S:1:pos:R:3:forces:R:3 energy=-3.3662571521025844 pbc="F F F"
As       0.00000000       0.00000000       0.00000000       0.00000000       0.00000000      -0.00089974
As       0.00000000       0.00000000       4.64787879       0.00000000       0.00000000       0.00089974
2
Properties=species:S:1:pos:R:3:forces:R:3 energy=-3.3663182569126877 pbc="F F F"
As       0.00000000       0.00000000       0.00000000       0.00000000       0.00000000      -0.00110819
As       0.00000000       0.00000000       4.70666667       0.00000000       0.00000000       0.00110819
2
Properties=species:S:1:pos:R:3:forces:R:3 energy=-3.366382126868063 pbc="F F F"
As       0.00000000       0.00000000       0.00000000       0.00000000       0.00000000      -0.00103508
As       0.00000000       0.00000000       4.76545455       0.00000000       0.00000000       0.00103508
2
Properties=species:S:1:pos:R:3:forces:R:3 energy=-3.366439592533066 pbc="F F F"
As       0.00000000       0.00000000       0.00000000       0.00000000       0.00000000      -0.00093624
As       0.00000000       0.00000000       4.82424242       0.00000000       0.00000000       0.00093624
2
Properties=species:S:1:pos:R:3:forces:R:3 energy=-3.366495099753563 pbc="F F F"
As       0.00000000       0.00000000       0.00000000       0.00000000       0.00000000      -0.00099047
As       0.00000000       0.00000000       4.88303030       0.00000000       0.00000000       0.00099047
2
Properties=species:S:1:pos:R:3:forces:R:3 energy=-3.3665612529561 pbc="F F F"
As       0.00000000       0.00000000       0.00000000       0.00000000       0.00000000      -0.00130736
As       0.00000000       0.00000000       4.94181818       0.00000000       0.00000000       0.00130736
2
Properties=species:S:1:pos:R:3:forces:R:3 energy=-3.366654361222631 pbc="F F F"
As       0.00000000       0.00000000       0.00000000       0.00000000       0.00000000      -0.00189883
As       0.00000000       0.00000000       5.00060606       0.00000000       0.00000000       0.00189883
2
Properties=species:S:1:pos:R:3:forces:R:3 energy=-3.366787565333413 pbc="F F F"
As       0.00000000       0.00000000       0.00000000       0.00000000       0.00000000      -0.00264306
As       0.00000000       0.00000000       5.05939394       0.00000000       0.00000000       0.00264306
2
Properties=species:S:1:pos:R:3:forces:R:3 energy=-3.3669627552939816 pbc="F F F"
As       0.00000000       0.00000000       0.00000000       0.00000000       0.00000000      -0.00326471
As       0.00000000       0.00000000       5.11818182       0.00000000       0.00000000       0.00326471
2
Properties=species:S:1:pos:R:3:forces:R:3 energy=-3.367161324279633 pbc="F F F"
As       0.00000000       0.00000000       0.00000000       0.00000000       0.00000000      -0.00336629
As       0.00000000       0.00000000       5.17696970       0.00000000       0.00000000       0.00336629
2
Properties=species:S:1:pos:R:3:forces:R:3 energy=-3.3673396909514848 pbc="F F F"
As       0.00000000       0.00000000       0.00000000       0.00000000       0.00000000      -0.00250045
As       0.00000000       0.00000000       5.23575758       0.00000000       0.00000000       0.00250045
2
Properties=species:S:1:pos:R:3:forces:R:3 energy=-3.367427425369976 pbc="F F F"
As       0.00000000       0.00000000       0.00000000       0.00000000       0.00000000      -0.00022361
As       0.00000000       0.00000000       5.29454545       0.00000000       0.00000000       0.00022361
2
Properties=species:S:1:pos:R:3:forces:R:3 energy=-3.367334435606329 pbc="F F F"
As       0.00000000       0.00000000       0.00000000       0.00000000       0.00000000       0.00359833
As       0.00000000       0.00000000       5.35333333       0.00000000       0.00000000      -0.00359833
2
Properties=species:S:1:pos:R:3:forces:R:3 energy=-3.3670055869799627 pbc="F F F"
As       0.00000000       0.00000000       0.00000000       0.00000000       0.00000000       0.00720583
As       0.00000000       0.00000000       5.41212121       0.00000000       0.00000000      -0.00720583
2
Properties=species:S:1:pos:R:3:forces:R:3 energy=-3.366590982025215 pbc="F F F"
As       0.00000000       0.00000000       0.00000000       0.00000000       0.00000000       0.00563232
As       0.00000000       0.00000000       5.47090909       0.00000000       0.00000000      -0.00563232
2
Properties=species:S:1:pos:R:3:forces:R:3 energy=-3.3664662276544766 pbc="F F F"
As       0.00000000       0.00000000       0.00000000       0.00000000       0.00000000      -0.00169198
As       0.00000000       0.00000000       5.52969697       0.00000000       0.00000000       0.00169198
2
Properties=species:S:1:pos:R:3:forces:R:3 energy=-3.3667158003122557 pbc="F F F"
As       0.00000000       0.00000000       0.00000000       0.00000000       0.00000000      -0.00564883
As       0.00000000       0.00000000       5.58848485       0.00000000       0.00000000       0.00564883
2
Properties=species:S:1:pos:R:3:forces:R:3 energy=-3.367033913739471 pbc="F F F"
As       0.00000000       0.00000000       0.00000000       0.00000000       0.00000000      -0.00507909
As       0.00000000       0.00000000       5.64727273       0.00000000       0.00000000       0.00507909
2
Properties=species:S:1:pos:R:3:forces:R:3 energy=-3.367406125220925 pbc="F F F"
As       0.00000000       0.00000000       0.00000000       0.00000000       0.00000000      -0.00914315
As       0.00000000       0.00000000       5.70606061       0.00000000       0.00000000       0.00914315
2
Properties=species:S:1:pos:R:3:forces:R:3 energy=-3.3682989128057566 pbc="F F F"
As       0.00000000       0.00000000       0.00000000       0.00000000       0.00000000      -0.02195453
As       0.00000000       0.00000000       5.76484848       0.00000000       0.00000000       0.02195453
2
Properties=species:S:1:pos:R:3:forces:R:3 energy=-3.369868148987512 pbc="F F F"
As       0.00000000       0.00000000       0.00000000       0.00000000       0.00000000      -0.02883636
As       0.00000000       0.00000000       5.82363636       0.00000000       0.00000000       0.02883636
2
Properties=species:S:1:pos:R:3:forces:R:3 energy=-3.3713182002812756 pbc="F F F"
As       0.00000000       0.00000000       0.00000000       0.00000000       0.00000000      -0.01820752
As       0.00000000       0.00000000       5.88242424       0.00000000       0.00000000       0.01820752
2
Properties=species:S:1:pos:R:3:forces:R:3 energy=-3.37190665400227 pbc="F F F"
As       0.00000000       0.00000000       0.00000000       0.00000000       0.00000000      -0.00224916
As       0.00000000       0.00000000       5.94121212       0.00000000       0.00000000       0.00224916
2
Properties=species:S:1:pos:R:3:forces:R:3 energy=-3.3717759234576965 pbc="F F F"
As       0.00000000       0.00000000       0.00000000       0.00000000       0.00000000       0.00440468
As       0.00000000       0.00000000       6.00000000       0.00000000       0.00000000      -0.00440468
