2
Properties=species:S:1:pos:R:3:forces:R:3 energy=16768.090018988234 pbc="F F F"
Au       0.00000000       0.00000000       0.00000000       0.00000000       0.00000000 -285775.68750000
Au       0.00000000       0.00000000       0.18000000       0.00000000       0.00000000  285775.68750000
2
Properties=species:S:1:pos:R:3:forces:R:3 energy=6814.799003363235 pbc="F F F"
Au       0.00000000       0.00000000       0.00000000       0.00000000       0.00000000  -93723.06250000
Au       0.00000000       0.00000000       0.23878788       0.00000000       0.00000000   93723.06250000
2
Properties=species:S:1:pos:R:3:forces:R:3 energy=3297.503593206985 pbc="F F F"
Au       0.00000000       0.00000000       0.00000000       0.00000000       0.00000000  -36170.11328125
Au       0.00000000       0.00000000       0.29757576       0.00000000       0.00000000   36170.11328125
2
Properties=species:S:1:pos:R:3:forces:R:3 energy=1874.393363721133 pbc="F F F"
Au       0.00000000       0.00000000       0.00000000       0.00000000       0.00000000  -15488.77343750
Au       0.00000000       0.00000000       0.35636364       0.00000000       0.00000000   15488.77343750
2
Properties=species:S:1:pos:R:3:forces:R:3 energy=1242.1145551337186 pbc="F F F"
Au       0.00000000       0.00000000       0.00000000       0.00000000       0.00000000   -7213.33496094
Au       0.00000000       0.00000000       0.41515152       0.00000000       0.00000000    7213.33496094
2
Properties=species:S:1:pos:R:3:forces:R:3 energy=936.1273114940461 pbc="F F F"
Au       0.00000000       0.00000000       0.00000000       0.00000000       0.00000000   -3720.15258789
Au       0.00000000       0.00000000       0.47393939       0.00000000       0.00000000    3720.15258789
2
Properties=species:S:1:pos:R:3:forces:R:3 energy=758.5335004842325 pbc="F F F"
Au       0.00000000       0.00000000       0.00000000       0.00000000       0.00000000   -2378.75537109
Au       0.00000000       0.00000000       0.53272727       0.00000000       0.00000000    2378.75537109
2
Properties=species:S:1:pos:R:3:forces:R:3 energy=637.0083540410392 pbc="F F F"
Au       0.00000000       0.00000000       0.00000000       0.00000000       0.00000000   -1899.48010254
Au       0.00000000       0.00000000       0.59151515       0.00000000       0.00000000    1899.48010254
2
Properties=species:S:1:pos:R:3:forces:R:3 energy=524.1049117310866 pbc="F F F"
Au       0.00000000       0.00000000       0.00000000       0.00000000       0.00000000   -1840.82043457
Au       0.00000000       0.00000000       0.65030303       0.00000000       0.00000000    1840.82043457
2
Properties=species:S:1:pos:R:3:forces:R:3 energy=420.49868015567506 pbc="F F F"
Au       0.00000000       0.00000000       0.00000000       0.00000000       0.00000000   -1670.44421387
Au       0.00000000       0.00000000       0.70909091       0.00000000       0.00000000    1670.44421387
2
Properties=species:S:1:pos:R:3:forces:R:3 energy=331.6784899033856 pbc="F F F"
Au       0.00000000       0.00000000       0.00000000       0.00000000       0.00000000   -1351.18164062
Au       0.00000000       0.00000000       0.76787879       0.00000000       0.00000000    1351.18164062
2
Properties=species:S:1:pos:R:3:forces:R:3 energy=258.01168107478014 pbc="F F F"
Au       0.00000000       0.00000000       0.00000000       0.00000000       0.00000000   -1157.18920898
Au       0.00000000       0.00000000       0.82666667       0.00000000       0.00000000    1157.18920898
2
Properties=species:S:1:pos:R:3:forces:R:3 energy=198.24877250670062 pbc="F F F"
Au       0.00000000       0.00000000       0.00000000       0.00000000       0.00000000    -854.39184570
Au       0.00000000       0.00000000       0.88545455       0.00000000       0.00000000     854.39184570
2
Properties=species:S:1:pos:R:3:forces:R:3 energy=156.2018217259425 pbc="F F F"
Au       0.00000000       0.00000000       0.00000000       0.00000000       0.00000000    -599.51446533
Au       0.00000000       0.00000000       0.94424242       0.00000000       0.00000000     599.51446533
2
Properties=species:S:1:pos:R:3:forces:R:3 energy=125.35695854393309 pbc="F F F"
Au       0.00000000       0.00000000       0.00000000       0.00000000       0.00000000    -463.17324829
Au       0.00000000       0.00000000       1.00303030       0.00000000       0.00000000     463.17324829
2
Properties=species:S:1:pos:R:3:forces:R:3 energy=100.85639491908442 pbc="F F F"
Au       0.00000000       0.00000000       0.00000000       0.00000000       0.00000000    -373.76406860
Au       0.00000000       0.00000000       1.06181818       0.00000000       0.00000000     373.76406860
2
Properties=species:S:1:pos:R:3:forces:R:3 energy=81.24679230754516 pbc="F F F"
Au       0.00000000       0.00000000       0.00000000       0.00000000       0.00000000    -294.21441650
Au       0.00000000       0.00000000       1.12060606       0.00000000       0.00000000     294.21441650
2
Properties=species:S:1:pos:R:3:forces:R:3 energy=66.07908461373022 pbc="F F F"
Au       0.00000000       0.00000000       0.00000000       0.00000000       0.00000000    -224.22526550
Au       0.00000000       0.00000000       1.17939394       0.00000000       0.00000000     224.22526550
2
Properties=species:S:1:pos:R:3:forces:R:3 energy=54.540855865517536 pbc="F F F"
Au       0.00000000       0.00000000       0.00000000       0.00000000       0.00000000    -171.31362915
Au       0.00000000       0.00000000       1.23818182       0.00000000       0.00000000     171.31362915
2
Properties=species:S:1:pos:R:3:forces:R:3 energy=45.637576446492 pbc="F F F"
Au       0.00000000       0.00000000       0.00000000       0.00000000       0.00000000    -133.59475708
Au       0.00000000       0.00000000       1.29696970       0.00000000       0.00000000     133.59475708
2
Properties=species:S:1:pos:R:3:forces:R:3 energy=38.617274284880146 pbc="F F F"
Au       0.00000000       0.00000000       0.00000000       0.00000000       0.00000000    -107.09934998
Au       0.00000000       0.00000000       1.35575758       0.00000000       0.00000000     107.09934998
2
Properties=species:S:1:pos:R:3:forces:R:3 energy=32.83816105007144 pbc="F F F"
Au       0.00000000       0.00000000       0.00000000       0.00000000       0.00000000     -90.97980499
Au       0.00000000       0.00000000       1.41454545       0.00000000       0.00000000      90.97980499
2
Properties=species:S:1:pos:R:3:forces:R:3 energy=27.794621685088917 pbc="F F F"
Au       0.00000000       0.00000000       0.00000000       0.00000000       0.00000000     -81.32226562
Au       0.00000000       0.00000000       1.47333333       0.00000000       0.00000000      81.32226562
2
Properties=species:S:1:pos:R:3:forces:R:3 energy=23.220470632175143 pbc="F F F"
Au       0.00000000       0.00000000       0.00000000       0.00000000       0.00000000     -74.57615662
Au       0.00000000       0.00000000       1.53212121       0.00000000       0.00000000      74.57615662
2
Properties=species:S:1:pos:R:3:forces:R:3 energy=19.012381318760145 pbc="F F F"
Au       0.00000000       0.00000000       0.00000000       0.00000000       0.00000000     -68.56130219
Au       0.00000000       0.00000000       1.59090909       0.00000000       0.00000000      68.56130219
2
Properties=species:S:1:pos:R:3:forces:R:3 energy=15.172454949124377 pbc="F F F"
Au       0.00000000       0.00000000       0.00000000       0.00000000       0.00000000     -61.92000580
Au       0.00000000       0.00000000       1.64969697       0.00000000       0.00000000      61.92000580
2
Properties=species:S:1:pos:R:3:forces:R:3 energy=11.749256744603084 pbc="F F F"
Au       0.00000000       0.00000000       0.00000000       0.00000000       0.00000000     -54.42556000
Au       0.00000000       0.00000000       1.70848485       0.00000000       0.00000000      54.42556000
2
Properties=species:S:1:pos:R:3:forces:R:3 energy=8.78123536522218 pbc="F F F"
Au       0.00000000       0.00000000       0.00000000       0.00000000       0.00000000     -46.52766418
Au       0.00000000       0.00000000       1.76727273       0.00000000       0.00000000      46.52766418
2
Properties=species:S:1:pos:R:3:forces:R:3 energy=6.276150755860121 pbc="F F F"
Au       0.00000000       0.00000000       0.00000000       0.00000000       0.00000000     -38.75817871
Au       0.00000000       0.00000000       1.82606061       0.00000000       0.00000000      38.75817871
2
Properties=species:S:1:pos:R:3:forces:R:3 energy=4.213102611518891 pbc="F F F"
Au       0.00000000       0.00000000       0.00000000       0.00000000       0.00000000     -31.55014610
Au       0.00000000       0.00000000       1.88484848       0.00000000       0.00000000      31.55014610
2
Properties=species:S:1:pos:R:3:forces:R:3 energy=2.5503188097188083 pbc="F F F"
Au       0.00000000       0.00000000       0.00000000       0.00000000       0.00000000     -25.16720390
Au       0.00000000       0.00000000       1.94363636       0.00000000       0.00000000      25.16720390
2
Properties=species:S:1:pos:R:3:forces:R:3 energy=1.2362728213246998 pbc="F F F"
Au       0.00000000       0.00000000       0.00000000       0.00000000       0.00000000     -19.68741989
Au       0.00000000       0.00000000       2.00242424       0.00000000       0.00000000      19.68741989
2
Properties=species:S:1:pos:R:3:forces:R:3 energy=0.21841823537990346 pbc="F F F"
Au       0.00000000       0.00000000       0.00000000       0.00000000       0.00000000     -15.08128166
Au       0.00000000       0.00000000       2.06121212       0.00000000       0.00000000      15.08128166
2
Properties=species:S:1:pos:R:3:forces:R:3 energy=-0.5527121577805686 pbc="F F F"
Au       0.00000000       0.00000000       0.00000000       0.00000000       0.00000000     -11.28082180
Au       0.00000000       0.00000000       2.12000000       0.00000000       0.00000000      11.28082180
2
Properties=species:S:1:pos:R:3:forces:R:3 energy=-1.1221628398229273 pbc="F F F"
Au       0.00000000       0.00000000       0.00000000       0.00000000       0.00000000      -8.20603275
Au       0.00000000       0.00000000       2.17878788       0.00000000       0.00000000       8.20603275
2
Properties=species:S:1:pos:R:3:forces:R:3 energy=-1.5300670205714022 pbc="F F F"
Au       0.00000000       0.00000000       0.00000000       0.00000000       0.00000000      -5.77005339
Au       0.00000000       0.00000000       2.23757576       0.00000000       0.00000000       5.77005339
2
Properties=species:S:1:pos:R:3:forces:R:3 energy=-1.8112737818607967 pbc="F F F"
Au       0.00000000       0.00000000       0.00000000       0.00000000       0.00000000      -3.87977767
Au       0.00000000       0.00000000       2.29636364       0.00000000       0.00000000       3.87977767
2
Properties=species:S:1:pos:R:3:forces:R:3 energy=-1.995055655149349 pbc="F F F"
Au       0.00000000       0.00000000       0.00000000       0.00000000       0.00000000      -2.43987513
Au       0.00000000       0.00000000       2.35515152       0.00000000       0.00000000       2.43987513
2
Properties=species:S:1:pos:R:3:forces:R:3 energy=-2.105195707656548 pbc="F F F"
Au       0.00000000       0.00000000       0.00000000       0.00000000       0.00000000      -1.36018240
Au       0.00000000       0.00000000       2.41393939       0.00000000       0.00000000       1.36018240
2
Properties=species:S:1:pos:R:3:forces:R:3 energy=-2.1604891223685376 pbc="F F F"
Au       0.00000000       0.00000000       0.00000000       0.00000000       0.00000000      -0.56206161
Au       0.00000000       0.00000000       2.47272727       0.00000000       0.00000000       0.56206161
2
Properties=species:S:1:pos:R:3:forces:R:3 energy=-2.1755220390121672 pbc="F F F"
Au       0.00000000       0.00000000       0.00000000       0.00000000       0.00000000       0.01911245
Au       0.00000000       0.00000000       2.53151515       0.00000000       0.00000000      -0.01911245
2
Properties=species:S:1:pos:R:3:forces:R:3 energy=-2.161483094388373 pbc="F F F"
Au       0.00000000       0.00000000       0.00000000       0.00000000       0.00000000       0.43453786
Au       0.00000000       0.00000000       2.59030303       0.00000000       0.00000000      -0.43453786
2
Properties=species:S:1:pos:R:3:forces:R:3 energy=-2.126891670594243 pbc="F F F"
Au       0.00000000       0.00000000       0.00000000       0.00000000       0.00000000       0.72406590
Au       0.00000000       0.00000000       2.64909091       0.00000000       0.00000000      -0.72406590
2
Properties=species:S:1:pos:R:3:forces:R:3 energy=-2.0782097694760493 pbc="F F F"
Au       0.00000000       0.00000000       0.00000000       0.00000000       0.00000000       0.91845649
Au       0.00000000       0.00000000       2.70787879       0.00000000       0.00000000      -0.91845649
2
Properties=species:S:1:pos:R:3:forces:R:3 energy=-2.0203002431552686 pbc="F F F"
Au       0.00000000       0.00000000       0.00000000       0.00000000       0.00000000       1.04141271
Au       0.00000000       0.00000000       2.76666667       0.00000000       0.00000000      -1.04141271
2
Properties=species:S:1:pos:R:3:forces:R:3 energy=-1.9568022076166016 pbc="F F F"
Au       0.00000000       0.00000000       0.00000000       0.00000000       0.00000000       1.11126816
Au       0.00000000       0.00000000       2.82545455       0.00000000       0.00000000      -1.11126816
2
Properties=species:S:1:pos:R:3:forces:R:3 energy=-1.8903969594511432 pbc="F F F"
Au       0.00000000       0.00000000       0.00000000       0.00000000       0.00000000       1.14248288
Au       0.00000000       0.00000000       2.88424242       0.00000000       0.00000000      -1.14248288
2
Properties=species:S:1:pos:R:3:forces:R:3 energy=-1.8229976577204177 pbc="F F F"
Au       0.00000000       0.00000000       0.00000000       0.00000000       0.00000000       1.14693785
Au       0.00000000       0.00000000       2.94303030       0.00000000       0.00000000      -1.14693785
2
Properties=species:S:1:pos:R:3:forces:R:3 energy=-1.7558718533090736 pbc="F F F"
Au       0.00000000       0.00000000       0.00000000       0.00000000       0.00000000       1.13465381
Au       0.00000000       0.00000000       3.00181818       0.00000000       0.00000000      -1.13465381
2
Properties=species:S:1:pos:R:3:forces:R:3 energy=-1.6897710427814205 pbc="F F F"
Au       0.00000000       0.00000000       0.00000000       0.00000000       0.00000000       1.11299181
Au       0.00000000       0.00000000       3.06060606       0.00000000       0.00000000      -1.11299181
2
Properties=species:S:1:pos:R:3:forces:R:3 energy=-1.6251187352115375 pbc="F F F"
Au       0.00000000       0.00000000       0.00000000       0.00000000       0.00000000       1.08573961
Au       0.00000000       0.00000000       3.11939394       0.00000000       0.00000000      -1.08573961
2
Properties=species:S:1:pos:R:3:forces:R:3 energy=-1.5621956805502215 pbc="F F F"
Au       0.00000000       0.00000000       0.00000000       0.00000000       0.00000000       1.05428350
Au       0.00000000       0.00000000       3.17818182       0.00000000       0.00000000      -1.05428350
2
Properties=species:S:1:pos:R:3:forces:R:3 energy=-1.5012323748167256 pbc="F F F"
Au       0.00000000       0.00000000       0.00000000       0.00000000       0.00000000       1.01913846
Au       0.00000000       0.00000000       3.23696970       0.00000000       0.00000000      -1.01913846
2
Properties=species:S:1:pos:R:3:forces:R:3 energy=-1.4424395387295994 pbc="F F F"
Au       0.00000000       0.00000000       0.00000000       0.00000000       0.00000000       0.98044467
Au       0.00000000       0.00000000       3.29575758       0.00000000       0.00000000      -0.98044467
2
Properties=species:S:1:pos:R:3:forces:R:3 energy=-1.3860264974691436 pbc="F F F"
Au       0.00000000       0.00000000       0.00000000       0.00000000       0.00000000       0.93817210
Au       0.00000000       0.00000000       3.35454545       0.00000000       0.00000000      -0.93817210
2
Properties=species:S:1:pos:R:3:forces:R:3 energy=-1.3322018655663919 pbc="F F F"
Au       0.00000000       0.00000000       0.00000000       0.00000000       0.00000000       0.89241397
Au       0.00000000       0.00000000       3.41333333       0.00000000       0.00000000      -0.89241397
2
Properties=species:S:1:pos:R:3:forces:R:3 energy=-1.281159608936035 pbc="F F F"
Au       0.00000000       0.00000000       0.00000000       0.00000000       0.00000000       0.84363627
Au       0.00000000       0.00000000       3.47212121       0.00000000       0.00000000      -0.84363627
2
Properties=species:S:1:pos:R:3:forces:R:3 energy=-1.2330531693093607 pbc="F F F"
Au       0.00000000       0.00000000       0.00000000       0.00000000       0.00000000       0.79272789
Au       0.00000000       0.00000000       3.53090909       0.00000000       0.00000000      -0.79272789
2
Properties=species:S:1:pos:R:3:forces:R:3 energy=-1.1879719753487374 pbc="F F F"
Au       0.00000000       0.00000000       0.00000000       0.00000000       0.00000000       0.74090171
Au       0.00000000       0.00000000       3.58969697       0.00000000       0.00000000      -0.74090171
2
Properties=species:S:1:pos:R:3:forces:R:3 energy=-1.1459324015886916 pbc="F F F"
Au       0.00000000       0.00000000       0.00000000       0.00000000       0.00000000       0.68948531
Au       0.00000000       0.00000000       3.64848485       0.00000000       0.00000000      -0.68948531
2
Properties=species:S:1:pos:R:3:forces:R:3 energy=-1.1068733615320854 pbc="F F F"
Au       0.00000000       0.00000000       0.00000000       0.00000000       0.00000000       0.63969868
Au       0.00000000       0.00000000       3.70727273       0.00000000       0.00000000      -0.63969868
2
Properties=species:S:1:pos:R:3:forces:R:3 energy=-1.070667995664218 pbc="F F F"
Au       0.00000000       0.00000000       0.00000000       0.00000000       0.00000000       0.59250563
Au       0.00000000       0.00000000       3.76606061       0.00000000       0.00000000      -0.59250563
2
Properties=species:S:1:pos:R:3:forces:R:3 energy=-1.037145539773872 pbc="F F F"
Au       0.00000000       0.00000000       0.00000000       0.00000000       0.00000000       0.54852539
Au       0.00000000       0.00000000       3.82484848       0.00000000       0.00000000      -0.54852539
2
Properties=species:S:1:pos:R:3:forces:R:3 energy=-1.0061064023445963 pbc="F F F"
Au       0.00000000       0.00000000       0.00000000       0.00000000       0.00000000       0.50801921
Au       0.00000000       0.00000000       3.88363636       0.00000000       0.00000000      -0.50801921
2
Properties=species:S:1:pos:R:3:forces:R:3 energy=-0.9773470963032839 pbc="F F F"
Au       0.00000000       0.00000000       0.00000000       0.00000000       0.00000000       0.47095749
Au       0.00000000       0.00000000       3.94242424       0.00000000       0.00000000      -0.47095749
2
Properties=species:S:1:pos:R:3:forces:R:3 energy=-0.9506709430976314 pbc="F F F"
Au       0.00000000       0.00000000       0.00000000       0.00000000       0.00000000       0.43709797
Au       0.00000000       0.00000000       4.00121212       0.00000000       0.00000000      -0.43709797
2
Properties=species:S:1:pos:R:3:forces:R:3 energy=-0.9258990704610464 pbc="F F F"
Au       0.00000000       0.00000000       0.00000000       0.00000000       0.00000000       0.40610179
Au       0.00000000       0.00000000       4.06000000       0.00000000       0.00000000      -0.40610179
2
Properties=species:S:1:pos:R:3:forces:R:3 energy=-0.9028738110453517 pbc="F F F"
Au       0.00000000       0.00000000       0.00000000       0.00000000       0.00000000       0.37762359
Au       0.00000000       0.00000000       4.11878788       0.00000000       0.00000000      -0.37762359
2
Properties=species:S:1:pos:R:3:forces:R:3 energy=-0.8814558618206635 pbc="F F F"
Au       0.00000000       0.00000000       0.00000000       0.00000000       0.00000000       0.35137895
Au       0.00000000       0.00000000       4.17757576       0.00000000       0.00000000      -0.35137895
2
Properties=species:S:1:pos:R:3:forces:R:3 energy=-0.8615199050098992 pbc="F F F"
Au       0.00000000       0.00000000       0.00000000       0.00000000       0.00000000       0.32717878
Au       0.00000000       0.00000000       4.23636364       0.00000000       0.00000000      -0.32717878
2
Properties=species:S:1:pos:R:3:forces:R:3 energy=-0.8429489819094613 pbc="F F F"
Au       0.00000000       0.00000000       0.00000000       0.00000000       0.00000000       0.30493203
Au       0.00000000       0.00000000       4.29515152       0.00000000       0.00000000      -0.30493203
2
Properties=species:S:1:pos:R:3:forces:R:3 energy=-0.8256298094648777 pbc="F F F"
Au       0.00000000       0.00000000       0.00000000       0.00000000       0.00000000       0.28461406
Au       0.00000000       0.00000000       4.35393939       0.00000000       0.00000000      -0.28461406
2
Properties=species:S:1:pos:R:3:forces:R:3 energy=-0.8094478782667132 pbc="F F F"
Au       0.00000000       0.00000000       0.00000000       0.00000000       0.00000000       0.26622176
Au       0.00000000       0.00000000       4.41272727       0.00000000       0.00000000      -0.26622176
2
Properties=species:S:1:pos:R:3:forces:R:3 energy=-0.7942909923993011 pbc="F F F"
Au       0.00000000       0.00000000       0.00000000       0.00000000       0.00000000       0.24973173
Au       0.00000000       0.00000000       4.47151515       0.00000000       0.00000000      -0.24973173
2
Properties=species:S:1:pos:R:3:forces:R:3 energy=-0.7800496138133477 pbc="F F F"
Au       0.00000000       0.00000000       0.00000000       0.00000000       0.00000000       0.23505482
Au       0.00000000       0.00000000       4.53030303       0.00000000       0.00000000      -0.23505482
2
Properties=species:S:1:pos:R:3:forces:R:3 energy=-0.766622258838142 pbc="F F F"
Au       0.00000000       0.00000000       0.00000000       0.00000000       0.00000000       0.22201365
Au       0.00000000       0.00000000       4.58909091       0.00000000       0.00000000      -0.22201365
2
Properties=species:S:1:pos:R:3:forces:R:3 energy=-0.7539198687435168 pbc="F F F"
Au       0.00000000       0.00000000       0.00000000       0.00000000       0.00000000       0.21033549
Au       0.00000000       0.00000000       4.64787879       0.00000000       0.00000000      -0.21033549
2
Properties=species:S:1:pos:R:3:forces:R:3 energy=-0.7418718751584158 pbc="F F F"
Au       0.00000000       0.00000000       0.00000000       0.00000000       0.00000000       0.19966692
Au       0.00000000       0.00000000       4.70666667       0.00000000       0.00000000      -0.19966692
2
Properties=species:S:1:pos:R:3:forces:R:3 energy=-0.7304311856862347 pbc="F F F"
Au       0.00000000       0.00000000       0.00000000       0.00000000       0.00000000       0.18963879
Au       0.00000000       0.00000000       4.76545455       0.00000000       0.00000000      -0.18963879
2
Properties=species:S:1:pos:R:3:forces:R:3 energy=-0.7195687988959474 pbc="F F F"
Au       0.00000000       0.00000000       0.00000000       0.00000000       0.00000000       0.17992555
Au       0.00000000       0.00000000       4.82424242       0.00000000       0.00000000      -0.17992555
2
Properties=species:S:1:pos:R:3:forces:R:3 energy=-0.7092740944257748 pbc="F F F"
Au       0.00000000       0.00000000       0.00000000       0.00000000       0.00000000       0.17035998
Au       0.00000000       0.00000000       4.88303030       0.00000000       0.00000000      -0.17035998
2
Properties=species:S:1:pos:R:3:forces:R:3 energy=-0.6995344070129835 pbc="F F F"
Au       0.00000000       0.00000000       0.00000000       0.00000000       0.00000000       0.16102883
Au       0.00000000       0.00000000       4.94181818       0.00000000       0.00000000      -0.16102883
2
Properties=species:S:1:pos:R:3:forces:R:3 energy=-0.6903274129384653 pbc="F F F"
Au       0.00000000       0.00000000       0.00000000       0.00000000       0.00000000       0.15234818
Au       0.00000000       0.00000000       5.00060606       0.00000000       0.00000000      -0.15234818
2
Properties=species:S:1:pos:R:3:forces:R:3 energy=-0.6815948887279013 pbc="F F F"
Au       0.00000000       0.00000000       0.00000000       0.00000000       0.00000000       0.14503373
Au       0.00000000       0.00000000       5.05939394       0.00000000       0.00000000      -0.14503373
2
Properties=species:S:1:pos:R:3:forces:R:3 energy=-0.6732314864716114 pbc="F F F"
Au       0.00000000       0.00000000       0.00000000       0.00000000       0.00000000       0.13992147
Au       0.00000000       0.00000000       5.11818182       0.00000000       0.00000000      -0.13992147
2
Properties=species:S:1:pos:R:3:forces:R:3 energy=-0.6650899542746928 pbc="F F F"
Au       0.00000000       0.00000000       0.00000000       0.00000000       0.00000000       0.13753542
Au       0.00000000       0.00000000       5.17696970       0.00000000       0.00000000      -0.13753542
2
Properties=species:S:1:pos:R:3:forces:R:3 energy=-0.6570155677348334 pbc="F F F"
Au       0.00000000       0.00000000       0.00000000       0.00000000       0.00000000       0.13743781
Au       0.00000000       0.00000000       5.23575758       0.00000000       0.00000000      -0.13743781
2
Properties=species:S:1:pos:R:3:forces:R:3 energy=-0.648924675192901 pbc="F F F"
Au       0.00000000       0.00000000       0.00000000       0.00000000       0.00000000       0.13762428
Au       0.00000000       0.00000000       5.29454545       0.00000000       0.00000000      -0.13762428
2
Properties=species:S:1:pos:R:3:forces:R:3 energy=-0.6408898297967494 pbc="F F F"
Au       0.00000000       0.00000000       0.00000000       0.00000000       0.00000000       0.13502371
Au       0.00000000       0.00000000       5.35333333       0.00000000       0.00000000      -0.13502371
2
Properties=species:S:1:pos:R:3:forces:R:3 energy=-0.6331207469011559 pbc="F F F"
Au       0.00000000       0.00000000       0.00000000       0.00000000       0.00000000       0.12899435
Au       0.00000000       0.00000000       5.41212121       0.00000000       0.00000000      -0.12899435
2
Properties=species:S:1:pos:R:3:forces:R:3 energy=-0.6256804077287329 pbc="F F F"
Au       0.00000000       0.00000000       0.00000000       0.00000000       0.00000000       0.12507506
Au       0.00000000       0.00000000       5.47090909       0.00000000       0.00000000      -0.12507506
2
Properties=species:S:1:pos:R:3:forces:R:3 energy=-0.6183272310222946 pbc="F F F"
Au       0.00000000       0.00000000       0.00000000       0.00000000       0.00000000       0.12495618
Au       0.00000000       0.00000000       5.52969697       0.00000000       0.00000000      -0.12495618
2
Properties=species:S:1:pos:R:3:forces:R:3 energy=-0.6111329092420433 pbc="F F F"
Au       0.00000000       0.00000000       0.00000000       0.00000000       0.00000000       0.11796121
Au       0.00000000       0.00000000       5.58848485       0.00000000       0.00000000      -0.11796121
2
Properties=species:S:1:pos:R:3:forces:R:3 energy=-0.6046383905451442 pbc="F F F"
Au       0.00000000       0.00000000       0.00000000       0.00000000       0.00000000       0.10221566
Au       0.00000000       0.00000000       5.64727273       0.00000000       0.00000000      -0.10221566
2
Properties=species:S:1:pos:R:3:forces:R:3 energy=-0.5990688085863671 pbc="F F F"
Au       0.00000000       0.00000000       0.00000000       0.00000000       0.00000000       0.08903489
Au       0.00000000       0.00000000       5.70606061       0.00000000       0.00000000      -0.08903489
2
Properties=species:S:1:pos:R:3:forces:R:3 energy=-0.5938922101179018 pbc="F F F"
Au       0.00000000       0.00000000       0.00000000       0.00000000       0.00000000       0.08838927
Au       0.00000000       0.00000000       5.76484848       0.00000000       0.00000000      -0.08838927
2
Properties=species:S:1:pos:R:3:forces:R:3 energy=-0.5887828103984386 pbc="F F F"
Au       0.00000000       0.00000000       0.00000000       0.00000000       0.00000000       0.08221658
Au       0.00000000       0.00000000       5.82363636       0.00000000       0.00000000      -0.08221658
2
Properties=species:S:1:pos:R:3:forces:R:3 energy=-0.5847269177791986 pbc="F F F"
Au       0.00000000       0.00000000       0.00000000       0.00000000       0.00000000       0.05298074
Au       0.00000000       0.00000000       5.88242424       0.00000000       0.00000000      -0.05298074
2
Properties=species:S:1:pos:R:3:forces:R:3 energy=-0.582630445428956 pbc="F F F"
Au       0.00000000       0.00000000       0.00000000       0.00000000       0.00000000       0.01969030
Au       0.00000000       0.00000000       5.94121212       0.00000000       0.00000000      -0.01969030
2
Properties=species:S:1:pos:R:3:forces:R:3 energy=-0.5820113709732232 pbc="F F F"
Au       0.00000000       0.00000000       0.00000000       0.00000000       0.00000000       0.00582827
Au       0.00000000       0.00000000       6.00000000       0.00000000       0.00000000      -0.00582827
