2
Properties=species:S:1:pos:R:3:forces:R:3 energy=382.8177034446098 pbc="F F F"
B        0.00000000       0.00000000       0.00000000       0.00000000       0.00000000   -3409.93969727
B        0.00000000       0.00000000       0.18000000       0.00000000       0.00000000    3409.93969727
2
Properties=species:S:1:pos:R:3:forces:R:3 energy=253.52568074111554 pbc="F F F"
B        0.00000000       0.00000000       0.00000000       0.00000000       0.00000000   -1336.55834961
B        0.00000000       0.00000000       0.23878788       0.00000000       0.00000000    1336.55834961
2
Properties=species:S:1:pos:R:3:forces:R:3 energy=199.73463460170524 pbc="F F F"
B        0.00000000       0.00000000       0.00000000       0.00000000       0.00000000    -649.51696777
B        0.00000000       0.00000000       0.29757576       0.00000000       0.00000000     649.51696777
2
Properties=species:S:1:pos:R:3:forces:R:3 energy=164.2259676158534 pbc="F F F"
B        0.00000000       0.00000000       0.00000000       0.00000000       0.00000000    -650.19000244
B        0.00000000       0.00000000       0.35636364       0.00000000       0.00000000     650.19000244
2
Properties=species:S:1:pos:R:3:forces:R:3 energy=121.51878379380187 pbc="F F F"
B        0.00000000       0.00000000       0.00000000       0.00000000       0.00000000    -728.77606201
B        0.00000000       0.00000000       0.41515152       0.00000000       0.00000000     728.77606201
2
Properties=species:S:1:pos:R:3:forces:R:3 energy=86.9119951918101 pbc="F F F"
B        0.00000000       0.00000000       0.00000000       0.00000000       0.00000000    -421.95791626
B        0.00000000       0.00000000       0.47393939       0.00000000       0.00000000     421.95791626
2
Properties=species:S:1:pos:R:3:forces:R:3 energy=67.18972810270373 pbc="F F F"
B        0.00000000       0.00000000       0.00000000       0.00000000       0.00000000    -298.06750488
B        0.00000000       0.00000000       0.53272727       0.00000000       0.00000000     298.06750488
2
Properties=species:S:1:pos:R:3:forces:R:3 energy=50.914158293054285 pbc="F F F"
B        0.00000000       0.00000000       0.00000000       0.00000000       0.00000000    -251.32220459
B        0.00000000       0.00000000       0.59151515       0.00000000       0.00000000     251.32220459
2
Properties=species:S:1:pos:R:3:forces:R:3 energy=38.664330128661454 pbc="F F F"
B        0.00000000       0.00000000       0.00000000       0.00000000       0.00000000    -133.81480408
B        0.00000000       0.00000000       0.65030303       0.00000000       0.00000000     133.81480408
2
Properties=species:S:1:pos:R:3:forces:R:3 energy=38.18492214168574 pbc="F F F"
B        0.00000000       0.00000000       0.00000000       0.00000000       0.00000000      68.23750305
B        0.00000000       0.00000000       0.70909091       0.00000000       0.00000000     -68.23750305
2
Properties=species:S:1:pos:R:3:forces:R:3 energy=39.29074989454905 pbc="F F F"
B        0.00000000       0.00000000       0.00000000       0.00000000       0.00000000     -64.63014984
B        0.00000000       0.00000000       0.76787879       0.00000000       0.00000000      64.63014984
2
Properties=species:S:1:pos:R:3:forces:R:3 energy=31.036397944278203 pbc="F F F"
B        0.00000000       0.00000000       0.00000000       0.00000000       0.00000000    -191.35575867
B        0.00000000       0.00000000       0.82666667       0.00000000       0.00000000     191.35575867
2
Properties=species:S:1:pos:R:3:forces:R:3 energy=19.619563049524118 pbc="F F F"
B        0.00000000       0.00000000       0.00000000       0.00000000       0.00000000    -177.12315369
B        0.00000000       0.00000000       0.88545455       0.00000000       0.00000000     177.12315369
2
Properties=species:S:1:pos:R:3:forces:R:3 energy=11.335577246022316 pbc="F F F"
B        0.00000000       0.00000000       0.00000000       0.00000000       0.00000000    -106.70018005
B        0.00000000       0.00000000       0.94424242       0.00000000       0.00000000     106.70018005
2
Properties=species:S:1:pos:R:3:forces:R:3 energy=6.384598291762804 pbc="F F F"
B        0.00000000       0.00000000       0.00000000       0.00000000       0.00000000     -66.94758606
B        0.00000000       0.00000000       1.00303030       0.00000000       0.00000000      66.94758606
2
Properties=species:S:1:pos:R:3:forces:R:3 energy=3.0900473196445293 pbc="F F F"
B        0.00000000       0.00000000       0.00000000       0.00000000       0.00000000     -46.85897827
B        0.00000000       0.00000000       1.06181818       0.00000000       0.00000000      46.85897827
2
Properties=species:S:1:pos:R:3:forces:R:3 energy=0.7486062983175055 pbc="F F F"
B        0.00000000       0.00000000       0.00000000       0.00000000       0.00000000     -33.53296661
B        0.00000000       0.00000000       1.12060606       0.00000000       0.00000000      33.53296661
2
Properties=species:S:1:pos:R:3:forces:R:3 energy=-0.9224458083476633 pbc="F F F"
B        0.00000000       0.00000000       0.00000000       0.00000000       0.00000000     -23.81728935
B        0.00000000       0.00000000       1.17939394       0.00000000       0.00000000      23.81728935
2
Properties=species:S:1:pos:R:3:forces:R:3 energy=-2.102489045170009 pbc="F F F"
B        0.00000000       0.00000000       0.00000000       0.00000000       0.00000000     -16.69703484
B        0.00000000       0.00000000       1.23818182       0.00000000       0.00000000      16.69703484
2
Properties=species:S:1:pos:R:3:forces:R:3 energy=-2.9223323630359452 pbc="F F F"
B        0.00000000       0.00000000       0.00000000       0.00000000       0.00000000     -11.45642376
B        0.00000000       0.00000000       1.29696970       0.00000000       0.00000000      11.45642376
2
Properties=species:S:1:pos:R:3:forces:R:3 energy=-3.4753824665340134 pbc="F F F"
B        0.00000000       0.00000000       0.00000000       0.00000000       0.00000000      -7.54343605
B        0.00000000       0.00000000       1.35575758       0.00000000       0.00000000       7.54343605
2
Properties=species:S:1:pos:R:3:forces:R:3 energy=-3.8279289246963617 pbc="F F F"
B        0.00000000       0.00000000       0.00000000       0.00000000       0.00000000      -4.58861017
B        0.00000000       0.00000000       1.41454545       0.00000000       0.00000000       4.58861017
2
Properties=species:S:1:pos:R:3:forces:R:3 energy=-4.029394430030094 pbc="F F F"
B        0.00000000       0.00000000       0.00000000       0.00000000       0.00000000      -2.37623858
B        0.00000000       0.00000000       1.47333333       0.00000000       0.00000000       2.37623858
2
Properties=species:S:1:pos:R:3:forces:R:3 energy=-4.119100869790202 pbc="F F F"
B        0.00000000       0.00000000       0.00000000       0.00000000       0.00000000      -0.76581609
B        0.00000000       0.00000000       1.53212121       0.00000000       0.00000000       0.76581609
2
Properties=species:S:1:pos:R:3:forces:R:3 energy=-4.128939571971973 pbc="F F F"
B        0.00000000       0.00000000       0.00000000       0.00000000       0.00000000       0.35930142
B        0.00000000       0.00000000       1.59090909       0.00000000       0.00000000      -0.35930142
2
Properties=species:S:1:pos:R:3:forces:R:3 energy=-4.084290950551088 pbc="F F F"
B        0.00000000       0.00000000       0.00000000       0.00000000       0.00000000       1.10477841
B        0.00000000       0.00000000       1.64969697       0.00000000       0.00000000      -1.10477841
2
Properties=species:S:1:pos:R:3:forces:R:3 energy=-4.004534915904109 pbc="F F F"
B        0.00000000       0.00000000       0.00000000       0.00000000       0.00000000       1.57038271
B        0.00000000       0.00000000       1.70848485       0.00000000       0.00000000      -1.57038271
2
Properties=species:S:1:pos:R:3:forces:R:3 energy=-3.9031993695059373 pbc="F F F"
B        0.00000000       0.00000000       0.00000000       0.00000000       0.00000000       1.85402822
B        0.00000000       0.00000000       1.76727273       0.00000000       0.00000000      -1.85402822
2
Properties=species:S:1:pos:R:3:forces:R:3 energy=-3.7885316020545554 pbc="F F F"
B        0.00000000       0.00000000       0.00000000       0.00000000       0.00000000       2.03553843
B        0.00000000       0.00000000       1.82606061       0.00000000       0.00000000      -2.03553843
2
Properties=species:S:1:pos:R:3:forces:R:3 energy=-3.66475375560447 pbc="F F F"
B        0.00000000       0.00000000       0.00000000       0.00000000       0.00000000       2.17086911
B        0.00000000       0.00000000       1.88484848       0.00000000       0.00000000      -2.17086911
2
Properties=species:S:1:pos:R:3:forces:R:3 energy=-3.5336455188053275 pbc="F F F"
B        0.00000000       0.00000000       0.00000000       0.00000000       0.00000000       2.28729081
B        0.00000000       0.00000000       1.94363636       0.00000000       0.00000000      -2.28729081
2
Properties=species:S:1:pos:R:3:forces:R:3 energy=-3.3960533653690987 pbc="F F F"
B        0.00000000       0.00000000       0.00000000       0.00000000       0.00000000       2.39215446
B        0.00000000       0.00000000       2.00242424       0.00000000       0.00000000      -2.39215446
2
Properties=species:S:1:pos:R:3:forces:R:3 energy=-3.252464426019613 pbc="F F F"
B        0.00000000       0.00000000       0.00000000       0.00000000       0.00000000       2.49302649
B        0.00000000       0.00000000       2.06121212       0.00000000       0.00000000      -2.49302649
2
Properties=species:S:1:pos:R:3:forces:R:3 energy=-3.1029599053179626 pbc="F F F"
B        0.00000000       0.00000000       0.00000000       0.00000000       0.00000000       2.59147620
B        0.00000000       0.00000000       2.12000000       0.00000000       0.00000000      -2.59147620
2
Properties=species:S:1:pos:R:3:forces:R:3 energy=-2.9481914355748495 pbc="F F F"
B        0.00000000       0.00000000       0.00000000       0.00000000       0.00000000       2.66874385
B        0.00000000       0.00000000       2.17878788       0.00000000       0.00000000      -2.66874385
2
Properties=species:S:1:pos:R:3:forces:R:3 energy=-2.789869092443228 pbc="F F F"
B        0.00000000       0.00000000       0.00000000       0.00000000       0.00000000       2.71131039
B        0.00000000       0.00000000       2.23757576       0.00000000       0.00000000      -2.71131039
2
Properties=species:S:1:pos:R:3:forces:R:3 energy=-2.63015082245783 pbc="F F F"
B        0.00000000       0.00000000       0.00000000       0.00000000       0.00000000       2.71601129
B        0.00000000       0.00000000       2.29636364       0.00000000       0.00000000      -2.71601129
2
Properties=species:S:1:pos:R:3:forces:R:3 energy=-2.4712860601732087 pbc="F F F"
B        0.00000000       0.00000000       0.00000000       0.00000000       0.00000000       2.68230557
B        0.00000000       0.00000000       2.35515152       0.00000000       0.00000000      -2.68230557
2
Properties=species:S:1:pos:R:3:forces:R:3 energy=-2.315514933998399 pbc="F F F"
B        0.00000000       0.00000000       0.00000000       0.00000000       0.00000000       2.61097264
B        0.00000000       0.00000000       2.41393939       0.00000000       0.00000000      -2.61097264
2
Properties=species:S:1:pos:R:3:forces:R:3 energy=-2.164971430054402 pbc="F F F"
B        0.00000000       0.00000000       0.00000000       0.00000000       0.00000000       2.50526261
B        0.00000000       0.00000000       2.47272727       0.00000000       0.00000000      -2.50526261
2
Properties=species:S:1:pos:R:3:forces:R:3 energy=-2.021512389547883 pbc="F F F"
B        0.00000000       0.00000000       0.00000000       0.00000000       0.00000000       2.37126851
B        0.00000000       0.00000000       2.53151515       0.00000000       0.00000000      -2.37126851
2
Properties=species:S:1:pos:R:3:forces:R:3 energy=-1.8865662377681292 pbc="F F F"
B        0.00000000       0.00000000       0.00000000       0.00000000       0.00000000       2.21706033
B        0.00000000       0.00000000       2.59030303       0.00000000       0.00000000      -2.21706033
2
Properties=species:S:1:pos:R:3:forces:R:3 energy=-1.761065715906437 pbc="F F F"
B        0.00000000       0.00000000       0.00000000       0.00000000       0.00000000       2.05126595
B        0.00000000       0.00000000       2.64909091       0.00000000       0.00000000      -2.05126595
2
Properties=species:S:1:pos:R:3:forces:R:3 energy=-1.6454565983577747 pbc="F F F"
B        0.00000000       0.00000000       0.00000000       0.00000000       0.00000000       1.88178778
B        0.00000000       0.00000000       2.70787879       0.00000000       0.00000000      -1.88178778
2
Properties=species:S:1:pos:R:3:forces:R:3 energy=-1.5397595760214524 pbc="F F F"
B        0.00000000       0.00000000       0.00000000       0.00000000       0.00000000       1.71499002
B        0.00000000       0.00000000       2.76666667       0.00000000       0.00000000      -1.71499002
2
Properties=species:S:1:pos:R:3:forces:R:3 energy=-1.4436725892287772 pbc="F F F"
B        0.00000000       0.00000000       0.00000000       0.00000000       0.00000000       1.55542290
B        0.00000000       0.00000000       2.82545455       0.00000000       0.00000000      -1.55542290
2
Properties=species:S:1:pos:R:3:forces:R:3 energy=-1.3566808234072991 pbc="F F F"
B        0.00000000       0.00000000       0.00000000       0.00000000       0.00000000       1.40596366
B        0.00000000       0.00000000       2.88424242       0.00000000       0.00000000      -1.40596366
2
Properties=species:S:1:pos:R:3:forces:R:3 energy=-1.27813711233085 pbc="F F F"
B        0.00000000       0.00000000       0.00000000       0.00000000       0.00000000       1.26814771
B        0.00000000       0.00000000       2.94303030       0.00000000       0.00000000      -1.26814771
2
Properties=species:S:1:pos:R:3:forces:R:3 energy=-1.2073381425339176 pbc="F F F"
B        0.00000000       0.00000000       0.00000000       0.00000000       0.00000000       1.14255214
B        0.00000000       0.00000000       3.00181818       0.00000000       0.00000000      -1.14255214
2
Properties=species:S:1:pos:R:3:forces:R:3 energy=-1.1435620275805602 pbc="F F F"
B        0.00000000       0.00000000       0.00000000       0.00000000       0.00000000       1.02909958
B        0.00000000       0.00000000       3.06060606       0.00000000       0.00000000      -1.02909958
2
Properties=species:S:1:pos:R:3:forces:R:3 energy=-1.086112268949805 pbc="F F F"
B        0.00000000       0.00000000       0.00000000       0.00000000       0.00000000       0.92728394
B        0.00000000       0.00000000       3.11939394       0.00000000       0.00000000      -0.92728394
2
Properties=species:S:1:pos:R:3:forces:R:3 energy=-1.0343235446058106 pbc="F F F"
B        0.00000000       0.00000000       0.00000000       0.00000000       0.00000000       0.83631128
B        0.00000000       0.00000000       3.17818182       0.00000000       0.00000000      -0.83631128
2
Properties=species:S:1:pos:R:3:forces:R:3 energy=-0.9875893407944419 pbc="F F F"
B        0.00000000       0.00000000       0.00000000       0.00000000       0.00000000       0.75519413
B        0.00000000       0.00000000       3.23696970       0.00000000       0.00000000      -0.75519413
2
Properties=species:S:1:pos:R:3:forces:R:3 energy=-0.9453599787543489 pbc="F F F"
B        0.00000000       0.00000000       0.00000000       0.00000000       0.00000000       0.68283790
B        0.00000000       0.00000000       3.29575758       0.00000000       0.00000000      -0.68283790
2
Properties=species:S:1:pos:R:3:forces:R:3 energy=-0.9071542360387854 pbc="F F F"
B        0.00000000       0.00000000       0.00000000       0.00000000       0.00000000       0.61810207
B        0.00000000       0.00000000       3.35454545       0.00000000       0.00000000      -0.61810207
2
Properties=species:S:1:pos:R:3:forces:R:3 energy=-0.8725579037488064 pbc="F F F"
B        0.00000000       0.00000000       0.00000000       0.00000000       0.00000000       0.55989707
B        0.00000000       0.00000000       3.41333333       0.00000000       0.00000000      -0.55989707
2
Properties=species:S:1:pos:R:3:forces:R:3 energy=-0.8412153400967307 pbc="F F F"
B        0.00000000       0.00000000       0.00000000       0.00000000       0.00000000       0.50723523
B        0.00000000       0.00000000       3.47212121       0.00000000       0.00000000      -0.50723523
2
Properties=species:S:1:pos:R:3:forces:R:3 energy=-0.8128270306154457 pbc="F F F"
B        0.00000000       0.00000000       0.00000000       0.00000000       0.00000000       0.45930532
B        0.00000000       0.00000000       3.53090909       0.00000000       0.00000000      -0.45930532
2
Properties=species:S:1:pos:R:3:forces:R:3 energy=-0.7871320543054008 pbc="F F F"
B        0.00000000       0.00000000       0.00000000       0.00000000       0.00000000       0.41548371
B        0.00000000       0.00000000       3.58969697       0.00000000       0.00000000      -0.41548371
2
Properties=species:S:1:pos:R:3:forces:R:3 energy=-0.7639034954928541 pbc="F F F"
B        0.00000000       0.00000000       0.00000000       0.00000000       0.00000000       0.37535274
B        0.00000000       0.00000000       3.64848485       0.00000000       0.00000000      -0.37535274
2
Properties=species:S:1:pos:R:3:forces:R:3 energy=-0.7429326284241211 pbc="F F F"
B        0.00000000       0.00000000       0.00000000       0.00000000       0.00000000       0.33865577
B        0.00000000       0.00000000       3.70727273       0.00000000       0.00000000      -0.33865577
2
Properties=species:S:1:pos:R:3:forces:R:3 energy=-0.7240215920618959 pbc="F F F"
B        0.00000000       0.00000000       0.00000000       0.00000000       0.00000000       0.30524394
B        0.00000000       0.00000000       3.76606061       0.00000000       0.00000000      -0.30524394
2
Properties=species:S:1:pos:R:3:forces:R:3 energy=-0.70698066452666 pbc="F F F"
B        0.00000000       0.00000000       0.00000000       0.00000000       0.00000000       0.27502352
B        0.00000000       0.00000000       3.82484848       0.00000000       0.00000000      -0.27502352
2
Properties=species:S:1:pos:R:3:forces:R:3 energy=-0.6916248987260463 pbc="F F F"
B        0.00000000       0.00000000       0.00000000       0.00000000       0.00000000       0.24789101
B        0.00000000       0.00000000       3.88363636       0.00000000       0.00000000      -0.24789101
2
Properties=species:S:1:pos:R:3:forces:R:3 energy=-0.677777174279035 pbc="F F F"
B        0.00000000       0.00000000       0.00000000       0.00000000       0.00000000       0.22369181
B        0.00000000       0.00000000       3.94242424       0.00000000       0.00000000      -0.22369181
2
Properties=species:S:1:pos:R:3:forces:R:3 energy=-0.6652712003389069 pbc="F F F"
B        0.00000000       0.00000000       0.00000000       0.00000000       0.00000000       0.20220332
B        0.00000000       0.00000000       4.00121212       0.00000000       0.00000000      -0.20220332
2
Properties=species:S:1:pos:R:3:forces:R:3 energy=-0.6539555655412649 pbc="F F F"
B        0.00000000       0.00000000       0.00000000       0.00000000       0.00000000       0.18313615
B        0.00000000       0.00000000       4.06000000       0.00000000       0.00000000      -0.18313615
2
Properties=species:S:1:pos:R:3:forces:R:3 energy=-0.643697892114192 pbc="F F F"
B        0.00000000       0.00000000       0.00000000       0.00000000       0.00000000       0.16615331
B        0.00000000       0.00000000       4.11878788       0.00000000       0.00000000      -0.16615331
2
Properties=species:S:1:pos:R:3:forces:R:3 energy=-0.6343859412320338 pbc="F F F"
B        0.00000000       0.00000000       0.00000000       0.00000000       0.00000000       0.15090139
B        0.00000000       0.00000000       4.17757576       0.00000000       0.00000000      -0.15090139
2
Properties=species:S:1:pos:R:3:forces:R:3 energy=-0.6259281056916675 pbc="F F F"
B        0.00000000       0.00000000       0.00000000       0.00000000       0.00000000       0.13704804
B        0.00000000       0.00000000       4.23636364       0.00000000       0.00000000      -0.13704804
2
Properties=species:S:1:pos:R:3:forces:R:3 energy=-0.618250538386151 pbc="F F F"
B        0.00000000       0.00000000       0.00000000       0.00000000       0.00000000       0.12430608
B        0.00000000       0.00000000       4.29515152       0.00000000       0.00000000      -0.12430608
2
Properties=species:S:1:pos:R:3:forces:R:3 energy=-0.6112952397883982 pbc="F F F"
B        0.00000000       0.00000000       0.00000000       0.00000000       0.00000000       0.11246286
B        0.00000000       0.00000000       4.35393939       0.00000000       0.00000000      -0.11246286
2
Properties=species:S:1:pos:R:3:forces:R:3 energy=-0.6050128156948507 pbc="F F F"
B        0.00000000       0.00000000       0.00000000       0.00000000       0.00000000       0.10138958
B        0.00000000       0.00000000       4.41272727       0.00000000       0.00000000      -0.10138958
2
Properties=species:S:1:pos:R:3:forces:R:3 energy=-0.5993598573729705 pbc="F F F"
B        0.00000000       0.00000000       0.00000000       0.00000000       0.00000000       0.09104794
B        0.00000000       0.00000000       4.47151515       0.00000000       0.00000000      -0.09104794
2
Properties=species:S:1:pos:R:3:forces:R:3 energy=-0.5942925676160479 pbc="F F F"
B        0.00000000       0.00000000       0.00000000       0.00000000       0.00000000       0.08148044
B        0.00000000       0.00000000       4.53030303       0.00000000       0.00000000      -0.08148044
2
Properties=species:S:1:pos:R:3:forces:R:3 energy=-0.589762614552599 pbc="F F F"
B        0.00000000       0.00000000       0.00000000       0.00000000       0.00000000       0.07278962
B        0.00000000       0.00000000       4.58909091       0.00000000       0.00000000      -0.07278962
2
Properties=species:S:1:pos:R:3:forces:R:3 energy=-0.5857146422985063 pbc="F F F"
B        0.00000000       0.00000000       0.00000000       0.00000000       0.00000000       0.06510975
B        0.00000000       0.00000000       4.64787879       0.00000000       0.00000000      -0.06510975
2
Properties=species:S:1:pos:R:3:forces:R:3 energy=-0.5820850079641207 pbc="F F F"
B        0.00000000       0.00000000       0.00000000       0.00000000       0.00000000       0.05856473
B        0.00000000       0.00000000       4.70666667       0.00000000       0.00000000      -0.05856473
2
Properties=species:S:1:pos:R:3:forces:R:3 energy=-0.578805024855701 pbc="F F F"
B        0.00000000       0.00000000       0.00000000       0.00000000       0.00000000       0.05322818
B        0.00000000       0.00000000       4.76545455       0.00000000       0.00000000      -0.05322818
2
Properties=species:S:1:pos:R:3:forces:R:3 energy=-0.5758034009101598 pbc="F F F"
B        0.00000000       0.00000000       0.00000000       0.00000000       0.00000000       0.04907668
B        0.00000000       0.00000000       4.82424242       0.00000000       0.00000000      -0.04907668
2
Properties=species:S:1:pos:R:3:forces:R:3 energy=-0.5730142435364625 pbc="F F F"
B        0.00000000       0.00000000       0.00000000       0.00000000       0.00000000       0.04598284
B        0.00000000       0.00000000       4.88303030       0.00000000       0.00000000      -0.04598284
2
Properties=species:S:1:pos:R:3:forces:R:3 energy=-0.5703801733123552 pbc="F F F"
B        0.00000000       0.00000000       0.00000000       0.00000000       0.00000000       0.04374468
B        0.00000000       0.00000000       4.94181818       0.00000000       0.00000000      -0.04374468
2
Properties=species:S:1:pos:R:3:forces:R:3 energy=-0.5678576032471937 pbc="F F F"
B        0.00000000       0.00000000       0.00000000       0.00000000       0.00000000       0.04217220
B        0.00000000       0.00000000       5.00060606       0.00000000       0.00000000      -0.04217220
2
Properties=species:S:1:pos:R:3:forces:R:3 energy=-0.5654100204841268 pbc="F F F"
B        0.00000000       0.00000000       0.00000000       0.00000000       0.00000000       0.04119845
B        0.00000000       0.00000000       5.05939394       0.00000000       0.00000000      -0.04119845
2
Properties=species:S:1:pos:R:3:forces:R:3 energy=-0.5630000529426759 pbc="F F F"
B        0.00000000       0.00000000       0.00000000       0.00000000       0.00000000       0.04091999
B        0.00000000       0.00000000       5.11818182       0.00000000       0.00000000      -0.04091999
2
Properties=species:S:1:pos:R:3:forces:R:3 energy=-0.5605826373553174 pbc="F F F"
B        0.00000000       0.00000000       0.00000000       0.00000000       0.00000000       0.04146821
B        0.00000000       0.00000000       5.17696970       0.00000000       0.00000000      -0.04146821
2
Properties=species:S:1:pos:R:3:forces:R:3 energy=-0.5581118702378335 pbc="F F F"
B        0.00000000       0.00000000       0.00000000       0.00000000       0.00000000       0.04264740
B        0.00000000       0.00000000       5.23575758       0.00000000       0.00000000      -0.04264740
2
Properties=species:S:1:pos:R:3:forces:R:3 energy=-0.5555737419266694 pbc="F F F"
B        0.00000000       0.00000000       0.00000000       0.00000000       0.00000000       0.04353476
B        0.00000000       0.00000000       5.29454545       0.00000000       0.00000000      -0.04353476
2
Properties=species:S:1:pos:R:3:forces:R:3 energy=-0.5530298881701005 pbc="F F F"
B        0.00000000       0.00000000       0.00000000       0.00000000       0.00000000       0.04256114
B        0.00000000       0.00000000       5.35333333       0.00000000       0.00000000      -0.04256114
2
Properties=species:S:1:pos:R:3:forces:R:3 energy=-0.5506253276446739 pbc="F F F"
B        0.00000000       0.00000000       0.00000000       0.00000000       0.00000000       0.03882995
B        0.00000000       0.00000000       5.41212121       0.00000000       0.00000000      -0.03882995
2
Properties=species:S:1:pos:R:3:forces:R:3 energy=-0.5484848251190669 pbc="F F F"
B        0.00000000       0.00000000       0.00000000       0.00000000       0.00000000       0.03410274
B        0.00000000       0.00000000       5.47090909       0.00000000       0.00000000      -0.03410274
2
Properties=species:S:1:pos:R:3:forces:R:3 energy=-0.5465874714021465 pbc="F F F"
B        0.00000000       0.00000000       0.00000000       0.00000000       0.00000000       0.03059934
B        0.00000000       0.00000000       5.52969697       0.00000000       0.00000000      -0.03059934
2
Properties=species:S:1:pos:R:3:forces:R:3 energy=-0.5448997777429078 pbc="F F F"
B        0.00000000       0.00000000       0.00000000       0.00000000       0.00000000       0.02653059
B        0.00000000       0.00000000       5.58848485       0.00000000       0.00000000      -0.02653059
2
Properties=species:S:1:pos:R:3:forces:R:3 energy=-0.5434977558444299 pbc="F F F"
B        0.00000000       0.00000000       0.00000000       0.00000000       0.00000000       0.02104533
B        0.00000000       0.00000000       5.64727273       0.00000000       0.00000000      -0.02104533
2
Properties=species:S:1:pos:R:3:forces:R:3 energy=-0.5424122261896731 pbc="F F F"
B        0.00000000       0.00000000       0.00000000       0.00000000       0.00000000       0.01633419
B        0.00000000       0.00000000       5.70606061       0.00000000       0.00000000      -0.01633419
2
Properties=species:S:1:pos:R:3:forces:R:3 energy=-0.5414951291790026 pbc="F F F"
B        0.00000000       0.00000000       0.00000000       0.00000000       0.00000000       0.01545041
B        0.00000000       0.00000000       5.76484848       0.00000000       0.00000000      -0.01545041
2
Properties=species:S:1:pos:R:3:forces:R:3 energy=-0.540589342326954 pbc="F F F"
B        0.00000000       0.00000000       0.00000000       0.00000000       0.00000000       0.01480357
B        0.00000000       0.00000000       5.82363636       0.00000000       0.00000000      -0.01480357
2
Properties=species:S:1:pos:R:3:forces:R:3 energy=-0.5398504087117091 pbc="F F F"
B        0.00000000       0.00000000       0.00000000       0.00000000       0.00000000       0.00979806
B        0.00000000       0.00000000       5.88242424       0.00000000       0.00000000      -0.00979806
2
Properties=species:S:1:pos:R:3:forces:R:3 energy=-0.5394510264517767 pbc="F F F"
B        0.00000000       0.00000000       0.00000000       0.00000000       0.00000000       0.00404283
B        0.00000000       0.00000000       5.94121212       0.00000000       0.00000000      -0.00404283
2
Properties=species:S:1:pos:R:3:forces:R:3 energy=-0.5393067997168314 pbc="F F F"
B        0.00000000       0.00000000       0.00000000       0.00000000       0.00000000       0.00162845
B        0.00000000       0.00000000       6.00000000       0.00000000       0.00000000      -0.00162845
