2
Properties=species:S:1:pos:R:3:forces:R:3 energy=132704.37180214838 pbc="F F F"
Ba       0.00000000       0.00000000       0.00000000       0.00000000       0.00000000 -178394.06250000
Ba       0.00000000       0.00000000       0.18000000       0.00000000       0.00000000  178394.06250000
2
Properties=species:S:1:pos:R:3:forces:R:3 energy=125918.51242714838 pbc="F F F"
Ba       0.00000000       0.00000000       0.00000000       0.00000000       0.00000000  -77514.46093750
Ba       0.00000000       0.00000000       0.23878788       0.00000000       0.00000000   77514.46093750
2
Properties=species:S:1:pos:R:3:forces:R:3 energy=121959.94992714838 pbc="F F F"
Ba       0.00000000       0.00000000       0.00000000       0.00000000       0.00000000  -65079.13281250
Ba       0.00000000       0.00000000       0.29757576       0.00000000       0.00000000   65079.13281250
2
Properties=species:S:1:pos:R:3:forces:R:3 energy=117595.42648964838 pbc="F F F"
Ba       0.00000000       0.00000000       0.00000000       0.00000000       0.00000000  -87758.14843750
Ba       0.00000000       0.00000000       0.35636364       0.00000000       0.00000000   87758.14843750
2
Properties=species:S:1:pos:R:3:forces:R:3 energy=111219.09836464838 pbc="F F F"
Ba       0.00000000       0.00000000       0.00000000       0.00000000       0.00000000 -132165.67187500
Ba       0.00000000       0.00000000       0.41515152       0.00000000       0.00000000  132165.67187500
2
Properties=species:S:1:pos:R:3:forces:R:3 energy=101775.12180214838 pbc="F F F"
Ba       0.00000000       0.00000000       0.00000000       0.00000000       0.00000000 -190772.53125000
Ba       0.00000000       0.00000000       0.47393939       0.00000000       0.00000000  190772.53125000
2
Properties=species:S:1:pos:R:3:forces:R:3 energy=88713.12180216105 pbc="F F F"
Ba       0.00000000       0.00000000       0.00000000       0.00000000       0.00000000 -253046.60937500
Ba       0.00000000       0.00000000       0.53272727       0.00000000       0.00000000  253046.60937500
2
Properties=species:S:1:pos:R:3:forces:R:3 energy=72258.91086467373 pbc="F F F"
Ba       0.00000000       0.00000000       0.00000000       0.00000000       0.00000000 -303152.25000000
Ba       0.00000000       0.00000000       0.59151515       0.00000000       0.00000000  303152.25000000
2
Properties=species:S:1:pos:R:3:forces:R:3 energy=53673.0514896864 pbc="F F F"
Ba       0.00000000       0.00000000       0.00000000       0.00000000       0.00000000 -322631.50000000
Ba       0.00000000       0.00000000       0.65030303       0.00000000       0.00000000  322631.50000000
2
Properties=species:S:1:pos:R:3:forces:R:3 energy=34818.48117721174 pbc="F F F"
Ba       0.00000000       0.00000000       0.00000000       0.00000000       0.00000000 -304122.09375000
Ba       0.00000000       0.00000000       0.70909091       0.00000000       0.00000000  304122.09375000
2
Properties=species:S:1:pos:R:3:forces:R:3 energy=18828.672583512423 pbc="F F F"
Ba       0.00000000       0.00000000       0.00000000       0.00000000       0.00000000 -233967.06250000
Ba       0.00000000       0.00000000       0.76787879       0.00000000       0.00000000  233967.06250000
2
Properties=species:S:1:pos:R:3:forces:R:3 energy=7733.10715388828 pbc="F F F"
Ba       0.00000000       0.00000000       0.00000000       0.00000000       0.00000000 -148700.37500000
Ba       0.00000000       0.00000000       0.82666667       0.00000000       0.00000000  148700.37500000
2
Properties=species:S:1:pos:R:3:forces:R:3 energy=1757.2194586771504 pbc="F F F"
Ba       0.00000000       0.00000000       0.00000000       0.00000000       0.00000000  -51561.74609375
Ba       0.00000000       0.00000000       0.88545455       0.00000000       0.00000000   51561.74609375
2
Properties=species:S:1:pos:R:3:forces:R:3 energy=315.84690021011335 pbc="F F F"
Ba       0.00000000       0.00000000       0.00000000       0.00000000       0.00000000   -1345.33642578
Ba       0.00000000       0.00000000       0.94424242       0.00000000       0.00000000    1345.33642578
2
Properties=species:S:1:pos:R:3:forces:R:3 energy=234.53913061212074 pbc="F F F"
Ba       0.00000000       0.00000000       0.00000000       0.00000000       0.00000000   -1333.09143066
Ba       0.00000000       0.00000000       1.00303030       0.00000000       0.00000000    1333.09143066
2
Properties=species:S:1:pos:R:3:forces:R:3 energy=150.510017083344 pbc="F F F"
Ba       0.00000000       0.00000000       0.00000000       0.00000000       0.00000000   -1291.08923340
Ba       0.00000000       0.00000000       1.06181818       0.00000000       0.00000000    1291.08923340
2
Properties=species:S:1:pos:R:3:forces:R:3 energy=96.98016359199671 pbc="F F F"
Ba       0.00000000       0.00000000       0.00000000       0.00000000       0.00000000    -480.08438110
Ba       0.00000000       0.00000000       1.12060606       0.00000000       0.00000000     480.08438110
2
Properties=species:S:1:pos:R:3:forces:R:3 energy=91.24261518202424 pbc="F F F"
Ba       0.00000000       0.00000000       0.00000000       0.00000000       0.00000000     196.39598083
Ba       0.00000000       0.00000000       1.17939394       0.00000000       0.00000000    -196.39598083
2
Properties=species:S:1:pos:R:3:forces:R:3 energy=102.86814978450683 pbc="F F F"
Ba       0.00000000       0.00000000       0.00000000       0.00000000       0.00000000      -1.99052429
Ba       0.00000000       0.00000000       1.23818182       0.00000000       0.00000000       1.99052429
2
Properties=species:S:1:pos:R:3:forces:R:3 energy=93.58668685838083 pbc="F F F"
Ba       0.00000000       0.00000000       0.00000000       0.00000000       0.00000000    -202.47303772
Ba       0.00000000       0.00000000       1.29696970       0.00000000       0.00000000     202.47303772
2
Properties=species:S:1:pos:R:3:forces:R:3 energy=81.793535877231 pbc="F F F"
Ba       0.00000000       0.00000000       0.00000000       0.00000000       0.00000000    -193.00625610
Ba       0.00000000       0.00000000       1.35575758       0.00000000       0.00000000     193.00625610
2
Properties=species:S:1:pos:R:3:forces:R:3 energy=71.08459075160576 pbc="F F F"
Ba       0.00000000       0.00000000       0.00000000       0.00000000       0.00000000    -172.22505188
Ba       0.00000000       0.00000000       1.41454545       0.00000000       0.00000000     172.22505188
2
Properties=species:S:1:pos:R:3:forces:R:3 energy=61.47223021214594 pbc="F F F"
Ba       0.00000000       0.00000000       0.00000000       0.00000000       0.00000000    -154.82362366
Ba       0.00000000       0.00000000       1.47333333       0.00000000       0.00000000     154.82362366
2
Properties=species:S:1:pos:R:3:forces:R:3 energy=52.901026758267164 pbc="F F F"
Ba       0.00000000       0.00000000       0.00000000       0.00000000       0.00000000    -136.64335632
Ba       0.00000000       0.00000000       1.53212121       0.00000000       0.00000000     136.64335632
2
Properties=species:S:1:pos:R:3:forces:R:3 energy=45.39588661177314 pbc="F F F"
Ba       0.00000000       0.00000000       0.00000000       0.00000000       0.00000000    -119.02220917
Ba       0.00000000       0.00000000       1.59090909       0.00000000       0.00000000     119.02220917
2
Properties=species:S:1:pos:R:3:forces:R:3 energy=38.84759122593692 pbc="F F F"
Ba       0.00000000       0.00000000       0.00000000       0.00000000       0.00000000    -104.32386017
Ba       0.00000000       0.00000000       1.64969697       0.00000000       0.00000000     104.32386017
2
Properties=species:S:1:pos:R:3:forces:R:3 energy=33.07207772535819 pbc="F F F"
Ba       0.00000000       0.00000000       0.00000000       0.00000000       0.00000000     -92.52473450
Ba       0.00000000       0.00000000       1.70848485       0.00000000       0.00000000      92.52473450
2
Properties=species:S:1:pos:R:3:forces:R:3 energy=27.943039671258155 pbc="F F F"
Ba       0.00000000       0.00000000       0.00000000       0.00000000       0.00000000     -82.07895660
Ba       0.00000000       0.00000000       1.76727273       0.00000000       0.00000000      82.07895660
2
Properties=species:S:1:pos:R:3:forces:R:3 energy=23.413636478275574 pbc="F F F"
Ba       0.00000000       0.00000000       0.00000000       0.00000000       0.00000000     -72.07683563
Ba       0.00000000       0.00000000       1.82606061       0.00000000       0.00000000      72.07683563
2
Properties=species:S:1:pos:R:3:forces:R:3 energy=19.458607335159076 pbc="F F F"
Ba       0.00000000       0.00000000       0.00000000       0.00000000       0.00000000     -62.57560730
Ba       0.00000000       0.00000000       1.88484848       0.00000000       0.00000000      62.57560730
2
Properties=species:S:1:pos:R:3:forces:R:3 energy=16.0446328890193 pbc="F F F"
Ba       0.00000000       0.00000000       0.00000000       0.00000000       0.00000000     -53.66291046
Ba       0.00000000       0.00000000       1.94363636       0.00000000       0.00000000      53.66291046
2
Properties=species:S:1:pos:R:3:forces:R:3 energy=13.13779870686474 pbc="F F F"
Ba       0.00000000       0.00000000       0.00000000       0.00000000       0.00000000     -45.34145737
Ba       0.00000000       0.00000000       2.00242424       0.00000000       0.00000000      45.34145737
2
Properties=species:S:1:pos:R:3:forces:R:3 energy=10.697180862149589 pbc="F F F"
Ba       0.00000000       0.00000000       0.00000000       0.00000000       0.00000000     -37.85668182
Ba       0.00000000       0.00000000       2.06121212       0.00000000       0.00000000      37.85668182
2
Properties=species:S:1:pos:R:3:forces:R:3 energy=8.665238632381554 pbc="F F F"
Ba       0.00000000       0.00000000       0.00000000       0.00000000       0.00000000     -31.46106529
Ba       0.00000000       0.00000000       2.12000000       0.00000000       0.00000000      31.46106529
2
Properties=species:S:1:pos:R:3:forces:R:3 energy=6.976573044043733 pbc="F F F"
Ba       0.00000000       0.00000000       0.00000000       0.00000000       0.00000000     -26.15908241
Ba       0.00000000       0.00000000       2.17878788       0.00000000       0.00000000      26.15908241
2
Properties=species:S:1:pos:R:3:forces:R:3 energy=5.571362185678993 pbc="F F F"
Ba       0.00000000       0.00000000       0.00000000       0.00000000       0.00000000     -21.78575706
Ba       0.00000000       0.00000000       2.23757576       0.00000000       0.00000000      21.78575706
2
Properties=species:S:1:pos:R:3:forces:R:3 energy=4.400508308552849 pbc="F F F"
Ba       0.00000000       0.00000000       0.00000000       0.00000000       0.00000000     -18.15822029
Ba       0.00000000       0.00000000       2.29636364       0.00000000       0.00000000      18.15822029
2
Properties=species:S:1:pos:R:3:forces:R:3 energy=3.42471478795653 pbc="F F F"
Ba       0.00000000       0.00000000       0.00000000       0.00000000       0.00000000     -15.12802601
Ba       0.00000000       0.00000000       2.35515152       0.00000000       0.00000000      15.12802601
2
Properties=species:S:1:pos:R:3:forces:R:3 energy=2.6124080795428095 pbc="F F F"
Ba       0.00000000       0.00000000       0.00000000       0.00000000       0.00000000     -12.57921696
Ba       0.00000000       0.00000000       2.41393939       0.00000000       0.00000000      12.57921696
2
Properties=species:S:1:pos:R:3:forces:R:3 energy=1.9379828405424848 pbc="F F F"
Ba       0.00000000       0.00000000       0.00000000       0.00000000       0.00000000     -10.42527866
Ba       0.00000000       0.00000000       2.47272727       0.00000000       0.00000000      10.42527866
2
Properties=species:S:1:pos:R:3:forces:R:3 energy=1.3800612155434728 pbc="F F F"
Ba       0.00000000       0.00000000       0.00000000       0.00000000       0.00000000      -8.60810089
Ba       0.00000000       0.00000000       2.53151515       0.00000000       0.00000000       8.60810089
2
Properties=species:S:1:pos:R:3:forces:R:3 energy=0.920019504706624 pbc="F F F"
Ba       0.00000000       0.00000000       0.00000000       0.00000000       0.00000000      -7.09001970
Ba       0.00000000       0.00000000       2.59030303       0.00000000       0.00000000       7.09001970
2
Properties=species:S:1:pos:R:3:forces:R:3 energy=0.5412045009031494 pbc="F F F"
Ba       0.00000000       0.00000000       0.00000000       0.00000000       0.00000000      -5.83917141
Ba       0.00000000       0.00000000       2.64909091       0.00000000       0.00000000       5.83917141
2
Properties=species:S:1:pos:R:3:forces:R:3 energy=0.22897357737796772 pbc="F F F"
Ba       0.00000000       0.00000000       0.00000000       0.00000000       0.00000000      -4.81787825
Ba       0.00000000       0.00000000       2.70787879       0.00000000       0.00000000       4.81787825
2
Properties=species:S:1:pos:R:3:forces:R:3 energy=-0.02889917581109619 pbc="F F F"
Ba       0.00000000       0.00000000       0.00000000       0.00000000       0.00000000      -3.98241115
Ba       0.00000000       0.00000000       2.76666667       0.00000000       0.00000000       3.98241115
2
Properties=species:S:1:pos:R:3:forces:R:3 energy=-0.2421022310260621 pbc="F F F"
Ba       0.00000000       0.00000000       0.00000000       0.00000000       0.00000000      -3.29224706
Ba       0.00000000       0.00000000       2.82545455       0.00000000       0.00000000       3.29224706
2
Properties=species:S:1:pos:R:3:forces:R:3 energy=-0.41825154016377875 pbc="F F F"
Ba       0.00000000       0.00000000       0.00000000       0.00000000       0.00000000      -2.71789241
Ba       0.00000000       0.00000000       2.88424242       0.00000000       0.00000000       2.71789241
2
Properties=species:S:1:pos:R:3:forces:R:3 energy=-0.5635565976245086 pbc="F F F"
Ba       0.00000000       0.00000000       0.00000000       0.00000000       0.00000000      -2.24040651
Ba       0.00000000       0.00000000       2.94303030       0.00000000       0.00000000       2.24040651
2
Properties=species:S:1:pos:R:3:forces:R:3 energy=-0.6833054667201274 pbc="F F F"
Ba       0.00000000       0.00000000       0.00000000       0.00000000       0.00000000      -1.84653592
Ba       0.00000000       0.00000000       3.00181818       0.00000000       0.00000000       1.84653592
2
Properties=species:S:1:pos:R:3:forces:R:3 energy=-0.7820847713394525 pbc="F F F"
Ba       0.00000000       0.00000000       0.00000000       0.00000000       0.00000000      -1.52524555
Ba       0.00000000       0.00000000       3.06060606       0.00000000       0.00000000       1.52524555
2
Properties=species:S:1:pos:R:3:forces:R:3 energy=-0.8638650333764748 pbc="F F F"
Ba       0.00000000       0.00000000       0.00000000       0.00000000       0.00000000      -1.26656783
Ba       0.00000000       0.00000000       3.11939394       0.00000000       0.00000000       1.26656783
2
Properties=species:S:1:pos:R:3:forces:R:3 energy=-0.9320457652362089 pbc="F F F"
Ba       0.00000000       0.00000000       0.00000000       0.00000000       0.00000000      -1.06112754
Ba       0.00000000       0.00000000       3.17818182       0.00000000       0.00000000       1.06112754
2
Properties=species:S:1:pos:R:3:forces:R:3 energy=-0.9894855446615435 pbc="F F F"
Ba       0.00000000       0.00000000       0.00000000       0.00000000       0.00000000      -0.89948452
Ba       0.00000000       0.00000000       3.23696970       0.00000000       0.00000000       0.89948452
2
Properties=species:S:1:pos:R:3:forces:R:3 energy=-1.038467413953129 pbc="F F F"
Ba       0.00000000       0.00000000       0.00000000       0.00000000       0.00000000      -0.77170867
Ba       0.00000000       0.00000000       3.29575758       0.00000000       0.00000000       0.77170867
2
Properties=species:S:1:pos:R:3:forces:R:3 energy=-1.0806891393176432 pbc="F F F"
Ba       0.00000000       0.00000000       0.00000000       0.00000000       0.00000000      -0.66794145
Ba       0.00000000       0.00000000       3.35454545       0.00000000       0.00000000       0.66794145
2
Properties=species:S:1:pos:R:3:forces:R:3 energy=-1.1173043349929566 pbc="F F F"
Ba       0.00000000       0.00000000       0.00000000       0.00000000       0.00000000      -0.57972223
Ba       0.00000000       0.00000000       3.41333333       0.00000000       0.00000000       0.57972223
2
Properties=species:S:1:pos:R:3:forces:R:3 energy=-1.1490381439361783 pbc="F F F"
Ba       0.00000000       0.00000000       0.00000000       0.00000000       0.00000000      -0.50118977
Ba       0.00000000       0.00000000       3.47212121       0.00000000       0.00000000       0.50118977
2
Properties=species:S:1:pos:R:3:forces:R:3 energy=-1.1763620328324484 pbc="F F F"
Ba       0.00000000       0.00000000       0.00000000       0.00000000       0.00000000      -0.42937052
Ba       0.00000000       0.00000000       3.53090909       0.00000000       0.00000000       0.42937052
2
Properties=species:S:1:pos:R:3:forces:R:3 energy=-1.1996377092094617 pbc="F F F"
Ba       0.00000000       0.00000000       0.00000000       0.00000000       0.00000000      -0.36348012
Ba       0.00000000       0.00000000       3.58969697       0.00000000       0.00000000       0.36348012
2
Properties=species:S:1:pos:R:3:forces:R:3 energy=-1.2192185879739352 pbc="F F F"
Ba       0.00000000       0.00000000       0.00000000       0.00000000       0.00000000      -0.30372712
Ba       0.00000000       0.00000000       3.64848485       0.00000000       0.00000000       0.30372712
2
Properties=species:S:1:pos:R:3:forces:R:3 energy=-1.23547243016917 pbc="F F F"
Ba       0.00000000       0.00000000       0.00000000       0.00000000       0.00000000      -0.25024337
Ba       0.00000000       0.00000000       3.70727273       0.00000000       0.00000000       0.25024337
2
Properties=species:S:1:pos:R:3:forces:R:3 energy=-1.2487533391273917 pbc="F F F"
Ba       0.00000000       0.00000000       0.00000000       0.00000000       0.00000000      -0.20249507
Ba       0.00000000       0.00000000       3.76606061       0.00000000       0.00000000       0.20249507
2
Properties=species:S:1:pos:R:3:forces:R:3 energy=-1.259369261179096 pbc="F F F"
Ba       0.00000000       0.00000000       0.00000000       0.00000000       0.00000000      -0.15925369
Ba       0.00000000       0.00000000       3.82484848       0.00000000       0.00000000       0.15925369
2
Properties=species:S:1:pos:R:3:forces:R:3 energy=-1.267536402682864 pbc="F F F"
Ba       0.00000000       0.00000000       0.00000000       0.00000000       0.00000000      -0.11897373
Ba       0.00000000       0.00000000       3.88363636       0.00000000       0.00000000       0.11897373
2
Properties=species:S:1:pos:R:3:forces:R:3 energy=-1.273387291235471 pbc="F F F"
Ba       0.00000000       0.00000000       0.00000000       0.00000000       0.00000000      -0.08026045
Ba       0.00000000       0.00000000       3.94242424       0.00000000       0.00000000       0.08026045
2
Properties=species:S:1:pos:R:3:forces:R:3 energy=-1.2769857646838498 pbc="F F F"
Ba       0.00000000       0.00000000       0.00000000       0.00000000       0.00000000      -0.04219322
Ba       0.00000000       0.00000000       4.00121212       0.00000000       0.00000000       0.04219322
2
Properties=species:S:1:pos:R:3:forces:R:3 energy=-1.278353626328768 pbc="F F F"
Ba       0.00000000       0.00000000       0.00000000       0.00000000       0.00000000      -0.00437612
Ba       0.00000000       0.00000000       4.06000000       0.00000000       0.00000000       0.00437612
2
Properties=species:S:1:pos:R:3:forces:R:3 energy=-1.277504787626773 pbc="F F F"
Ba       0.00000000       0.00000000       0.00000000       0.00000000       0.00000000       0.03318626
Ba       0.00000000       0.00000000       4.11878788       0.00000000       0.00000000      -0.03318626
2
Properties=species:S:1:pos:R:3:forces:R:3 energy=-1.2744603697887682 pbc="F F F"
Ba       0.00000000       0.00000000       0.00000000       0.00000000       0.00000000       0.07029581
Ba       0.00000000       0.00000000       4.17757576       0.00000000       0.00000000      -0.07029581
2
Properties=species:S:1:pos:R:3:forces:R:3 energy=-1.2692534745201676 pbc="F F F"
Ba       0.00000000       0.00000000       0.00000000       0.00000000       0.00000000       0.10670050
Ba       0.00000000       0.00000000       4.23636364       0.00000000       0.00000000      -0.10670050
2
Properties=species:S:1:pos:R:3:forces:R:3 energy=-1.261932813881862 pbc="F F F"
Ba       0.00000000       0.00000000       0.00000000       0.00000000       0.00000000       0.14216535
Ba       0.00000000       0.00000000       4.29515152       0.00000000       0.00000000      -0.14216535
2
Properties=species:S:1:pos:R:3:forces:R:3 energy=-1.2525612793481984 pbc="F F F"
Ba       0.00000000       0.00000000       0.00000000       0.00000000       0.00000000       0.17646980
Ba       0.00000000       0.00000000       4.35393939       0.00000000       0.00000000      -0.17646980
2
Properties=species:S:1:pos:R:3:forces:R:3 energy=-1.2412111823157983 pbc="F F F"
Ba       0.00000000       0.00000000       0.00000000       0.00000000       0.00000000       0.20943010
Ba       0.00000000       0.00000000       4.41272727       0.00000000       0.00000000      -0.20943010
2
Properties=species:S:1:pos:R:3:forces:R:3 energy=-1.2279643189149847 pbc="F F F"
Ba       0.00000000       0.00000000       0.00000000       0.00000000       0.00000000       0.24099728
Ba       0.00000000       0.00000000       4.47151515       0.00000000       0.00000000      -0.24099728
2
Properties=species:S:1:pos:R:3:forces:R:3 energy=-1.21289686092045 pbc="F F F"
Ba       0.00000000       0.00000000       0.00000000       0.00000000       0.00000000       0.27148283
Ba       0.00000000       0.00000000       4.53030303       0.00000000       0.00000000      -0.27148283
2
Properties=species:S:1:pos:R:3:forces:R:3 energy=-1.196049255437748 pbc="F F F"
Ba       0.00000000       0.00000000       0.00000000       0.00000000       0.00000000       0.30178148
Ba       0.00000000       0.00000000       4.58909091       0.00000000       0.00000000      -0.30178148
2
Properties=species:S:1:pos:R:3:forces:R:3 energy=-1.177394041265425 pbc="F F F"
Ba       0.00000000       0.00000000       0.00000000       0.00000000       0.00000000       0.33314416
Ba       0.00000000       0.00000000       4.64787879       0.00000000       0.00000000      -0.33314416
2
Properties=species:S:1:pos:R:3:forces:R:3 energy=-1.1568446677070157 pbc="F F F"
Ba       0.00000000       0.00000000       0.00000000       0.00000000       0.00000000       0.36619151
Ba       0.00000000       0.00000000       4.70666667       0.00000000       0.00000000      -0.36619151
2
Properties=species:S:1:pos:R:3:forces:R:3 energy=-1.1343237688962906 pbc="F F F"
Ba       0.00000000       0.00000000       0.00000000       0.00000000       0.00000000       0.39995727
Ba       0.00000000       0.00000000       4.76545455       0.00000000       0.00000000      -0.39995727
2
Properties=species:S:1:pos:R:3:forces:R:3 energy=-1.1098459457304906 pbc="F F F"
Ba       0.00000000       0.00000000       0.00000000       0.00000000       0.00000000       0.43237323
Ba       0.00000000       0.00000000       4.82424242       0.00000000       0.00000000      -0.43237323
2
Properties=species:S:1:pos:R:3:forces:R:3 energy=-1.0835383559646083 pbc="F F F"
Ba       0.00000000       0.00000000       0.00000000       0.00000000       0.00000000       0.46236274
Ba       0.00000000       0.00000000       4.88303030       0.00000000       0.00000000      -0.46236274
2
Properties=species:S:1:pos:R:3:forces:R:3 energy=-1.0554926637709425 pbc="F F F"
Ba       0.00000000       0.00000000       0.00000000       0.00000000       0.00000000       0.49203265
Ba       0.00000000       0.00000000       4.94181818       0.00000000       0.00000000      -0.49203265
2
Properties=species:S:1:pos:R:3:forces:R:3 energy=-1.0255773490578217 pbc="F F F"
Ba       0.00000000       0.00000000       0.00000000       0.00000000       0.00000000       0.52723700
Ba       0.00000000       0.00000000       5.00060606       0.00000000       0.00000000      -0.52723700
2
Properties=species:S:1:pos:R:3:forces:R:3 energy=-0.9932326533647386 pbc="F F F"
Ba       0.00000000       0.00000000       0.00000000       0.00000000       0.00000000       0.57608175
Ba       0.00000000       0.00000000       5.05939394       0.00000000       0.00000000      -0.57608175
2
Properties=species:S:1:pos:R:3:forces:R:3 energy=-0.9574438156278462 pbc="F F F"
Ba       0.00000000       0.00000000       0.00000000       0.00000000       0.00000000       0.64508283
Ba       0.00000000       0.00000000       5.11818182       0.00000000       0.00000000      -0.64508283
2
Properties=species:S:1:pos:R:3:forces:R:3 energy=-0.9170123105574763 pbc="F F F"
Ba       0.00000000       0.00000000       0.00000000       0.00000000       0.00000000       0.73280299
Ba       0.00000000       0.00000000       5.17696970       0.00000000       0.00000000      -0.73280299
2
Properties=species:S:1:pos:R:3:forces:R:3 energy=-0.8712480178424312 pbc="F F F"
Ba       0.00000000       0.00000000       0.00000000       0.00000000       0.00000000       0.82186359
Ba       0.00000000       0.00000000       5.23575758       0.00000000       0.00000000      -0.82186359
2
Properties=species:S:1:pos:R:3:forces:R:3 energy=-0.8210714118427798 pbc="F F F"
Ba       0.00000000       0.00000000       0.00000000       0.00000000       0.00000000       0.87583083
Ba       0.00000000       0.00000000       5.29454545       0.00000000       0.00000000      -0.87583083
2
Properties=species:S:1:pos:R:3:forces:R:3 energy=-0.7695835254822511 pbc="F F F"
Ba       0.00000000       0.00000000       0.00000000       0.00000000       0.00000000       0.86556244
Ba       0.00000000       0.00000000       5.35333333       0.00000000       0.00000000      -0.86556244
2
Properties=species:S:1:pos:R:3:forces:R:3 energy=-0.719572455482888 pbc="F F F"
Ba       0.00000000       0.00000000       0.00000000       0.00000000       0.00000000       0.84536892
Ba       0.00000000       0.00000000       5.41212121       0.00000000       0.00000000      -0.84536892
2
Properties=species:S:1:pos:R:3:forces:R:3 energy=-0.6677195424912831 pbc="F F F"
Ba       0.00000000       0.00000000       0.00000000       0.00000000       0.00000000       0.94329858
Ba       0.00000000       0.00000000       5.47090909       0.00000000       0.00000000      -0.94329858
2
Properties=species:S:1:pos:R:3:forces:R:3 energy=-0.60752450604303 pbc="F F F"
Ba       0.00000000       0.00000000       0.00000000       0.00000000       0.00000000       1.09126997
Ba       0.00000000       0.00000000       5.52969697       0.00000000       0.00000000      -1.09126997
2
Properties=species:S:1:pos:R:3:forces:R:3 energy=-0.5428870012872173 pbc="F F F"
Ba       0.00000000       0.00000000       0.00000000       0.00000000       0.00000000       1.07493520
Ba       0.00000000       0.00000000       5.58848485       0.00000000       0.00000000      -1.07493520
2
Properties=species:S:1:pos:R:3:forces:R:3 energy=-0.48335619240221533 pbc="F F F"
Ba       0.00000000       0.00000000       0.00000000       0.00000000       0.00000000       0.95293564
Ba       0.00000000       0.00000000       5.64727273       0.00000000       0.00000000      -0.95293564
2
Properties=species:S:1:pos:R:3:forces:R:3 energy=-0.4273488181572845 pbc="F F F"
Ba       0.00000000       0.00000000       0.00000000       0.00000000       0.00000000       1.00786519
Ba       0.00000000       0.00000000       5.70606061       0.00000000       0.00000000      -1.00786519
2
Properties=species:S:1:pos:R:3:forces:R:3 energy=-0.35835120366236733 pbc="F F F"
Ba       0.00000000       0.00000000       0.00000000       0.00000000       0.00000000       1.35812747
Ba       0.00000000       0.00000000       5.76484848       0.00000000       0.00000000      -1.35812747
2
Properties=species:S:1:pos:R:3:forces:R:3 energy=-0.27248669251274793 pbc="F F F"
Ba       0.00000000       0.00000000       0.00000000       0.00000000       0.00000000       1.46985471
Ba       0.00000000       0.00000000       5.82363636       0.00000000       0.00000000      -1.46985471
2
Properties=species:S:1:pos:R:3:forces:R:3 energy=-0.19848066955552587 pbc="F F F"
Ba       0.00000000       0.00000000       0.00000000       0.00000000       0.00000000       0.97201896
Ba       0.00000000       0.00000000       5.88242424       0.00000000       0.00000000      -0.97201896
2
Properties=species:S:1:pos:R:3:forces:R:3 energy=-0.16122481192419602 pbc="F F F"
Ba       0.00000000       0.00000000       0.00000000       0.00000000       0.00000000       0.31646681
Ba       0.00000000       0.00000000       5.94121212       0.00000000       0.00000000      -0.31646681
2
Properties=species:S:1:pos:R:3:forces:R:3 energy=-0.15340794428260102 pbc="F F F"
Ba       0.00000000       0.00000000       0.00000000       0.00000000       0.00000000       0.04043264
Ba       0.00000000       0.00000000       6.00000000       0.00000000       0.00000000      -0.04043264
