2
Properties=species:S:1:pos:R:3:forces:R:3 energy=10979.087492494942 pbc="F F F"
Bi       0.00000000       0.00000000       0.00000000       0.00000000       0.00000000 -305173.93750000
Bi       0.00000000       0.00000000       0.18000000       0.00000000       0.00000000  305173.93750000
2
Properties=species:S:1:pos:R:3:forces:R:3 energy=514.5582566550976 pbc="F F F"
Bi       0.00000000       0.00000000       0.00000000       0.00000000       0.00000000  -94675.67187500
Bi       0.00000000       0.00000000       0.23878788       0.00000000       0.00000000   94675.67187500
2
Properties=species:S:1:pos:R:3:forces:R:3 energy=-2752.628327814391 pbc="F F F"
Bi       0.00000000       0.00000000       0.00000000       0.00000000       0.00000000  -27123.24218750
Bi       0.00000000       0.00000000       0.29757576       0.00000000       0.00000000   27123.24218750
2
Properties=species:S:1:pos:R:3:forces:R:3 energy=-3381.975739923766 pbc="F F F"
Bi       0.00000000       0.00000000       0.00000000       0.00000000       0.00000000    2326.20190430
Bi       0.00000000       0.00000000       0.35636364       0.00000000       0.00000000   -2326.20190430
2
Properties=species:S:1:pos:R:3:forces:R:3 energy=-2752.70083757368 pbc="F F F"
Bi       0.00000000       0.00000000       0.00000000       0.00000000       0.00000000   17263.06640625
Bi       0.00000000       0.00000000       0.41515152       0.00000000       0.00000000  -17263.06640625
2
Properties=species:S:1:pos:R:3:forces:R:3 energy=-1557.0729078798445 pbc="F F F"
Bi       0.00000000       0.00000000       0.00000000       0.00000000       0.00000000   21664.56250000
Bi       0.00000000       0.00000000       0.47393939       0.00000000       0.00000000  -21664.56250000
2
Properties=species:S:1:pos:R:3:forces:R:3 energy=-446.467042382322 pbc="F F F"
Bi       0.00000000       0.00000000       0.00000000       0.00000000       0.00000000   12867.50488281
Bi       0.00000000       0.00000000       0.53272727       0.00000000       0.00000000  -12867.50488281
2
Properties=species:S:1:pos:R:3:forces:R:3 energy=120.18742999409477 pbc="F F F"
Bi       0.00000000       0.00000000       0.00000000       0.00000000       0.00000000    6148.49072266
Bi       0.00000000       0.00000000       0.59151515       0.00000000       0.00000000   -6148.49072266
2
Properties=species:S:1:pos:R:3:forces:R:3 energy=326.54122795104195 pbc="F F F"
Bi       0.00000000       0.00000000       0.00000000       0.00000000       0.00000000     862.58660889
Bi       0.00000000       0.00000000       0.65030303       0.00000000       0.00000000    -862.58660889
2
Properties=species:S:1:pos:R:3:forces:R:3 energy=280.4840686064094 pbc="F F F"
Bi       0.00000000       0.00000000       0.00000000       0.00000000       0.00000000   -1339.15881348
Bi       0.00000000       0.00000000       0.70909091       0.00000000       0.00000000    1339.15881348
2
Properties=species:S:1:pos:R:3:forces:R:3 energy=228.68203624658003 pbc="F F F"
Bi       0.00000000       0.00000000       0.00000000       0.00000000       0.00000000    -503.77841187
Bi       0.00000000       0.00000000       0.76787879       0.00000000       0.00000000     503.77841187
2
Properties=species:S:1:pos:R:3:forces:R:3 energy=207.75715542986146 pbc="F F F"
Bi       0.00000000       0.00000000       0.00000000       0.00000000       0.00000000    -293.43936157
Bi       0.00000000       0.00000000       0.82666667       0.00000000       0.00000000     293.43936157
2
Properties=species:S:1:pos:R:3:forces:R:3 energy=187.2322685824872 pbc="F F F"
Bi       0.00000000       0.00000000       0.00000000       0.00000000       0.00000000    -380.41125488
Bi       0.00000000       0.00000000       0.88545455       0.00000000       0.00000000     380.41125488
2
Properties=species:S:1:pos:R:3:forces:R:3 energy=166.80787621808102 pbc="F F F"
Bi       0.00000000       0.00000000       0.00000000       0.00000000       0.00000000    -317.27822876
Bi       0.00000000       0.00000000       0.94424242       0.00000000       0.00000000     317.27822876
2
Properties=species:S:1:pos:R:3:forces:R:3 energy=149.29632577409492 pbc="F F F"
Bi       0.00000000       0.00000000       0.00000000       0.00000000       0.00000000    -283.06903076
Bi       0.00000000       0.00000000       1.00303030       0.00000000       0.00000000     283.06903076
2
Properties=species:S:1:pos:R:3:forces:R:3 energy=133.37149118990993 pbc="F F F"
Bi       0.00000000       0.00000000       0.00000000       0.00000000       0.00000000    -259.01409912
Bi       0.00000000       0.00000000       1.06181818       0.00000000       0.00000000     259.01409912
2
Properties=species:S:1:pos:R:3:forces:R:3 energy=118.58729706725464 pbc="F F F"
Bi       0.00000000       0.00000000       0.00000000       0.00000000       0.00000000    -247.57353210
Bi       0.00000000       0.00000000       1.12060606       0.00000000       0.00000000     247.57353210
2
Properties=species:S:1:pos:R:3:forces:R:3 energy=104.00689958791168 pbc="F F F"
Bi       0.00000000       0.00000000       0.00000000       0.00000000       0.00000000    -248.43286133
Bi       0.00000000       0.00000000       1.17939394       0.00000000       0.00000000     248.43286133
2
Properties=species:S:1:pos:R:3:forces:R:3 energy=89.5180475303314 pbc="F F F"
Bi       0.00000000       0.00000000       0.00000000       0.00000000       0.00000000    -242.83885193
Bi       0.00000000       0.00000000       1.23818182       0.00000000       0.00000000     242.83885193
2
Properties=species:S:1:pos:R:3:forces:R:3 energy=75.65942962387386 pbc="F F F"
Bi       0.00000000       0.00000000       0.00000000       0.00000000       0.00000000    -226.75195312
Bi       0.00000000       0.00000000       1.29696970       0.00000000       0.00000000     226.75195312
2
Properties=species:S:1:pos:R:3:forces:R:3 energy=63.10447353902519 pbc="F F F"
Bi       0.00000000       0.00000000       0.00000000       0.00000000       0.00000000    -198.28675842
Bi       0.00000000       0.00000000       1.35575758       0.00000000       0.00000000     198.28675842
2
Properties=species:S:1:pos:R:3:forces:R:3 energy=52.50397053586512 pbc="F F F"
Bi       0.00000000       0.00000000       0.00000000       0.00000000       0.00000000    -162.17607117
Bi       0.00000000       0.00000000       1.41454545       0.00000000       0.00000000     162.17607117
2
Properties=species:S:1:pos:R:3:forces:R:3 energy=43.91300878115162 pbc="F F F"
Bi       0.00000000       0.00000000       0.00000000       0.00000000       0.00000000    -132.04376221
Bi       0.00000000       0.00000000       1.47333333       0.00000000       0.00000000     132.04376221
2
Properties=species:S:1:pos:R:3:forces:R:3 energy=36.72433817847104 pbc="F F F"
Bi       0.00000000       0.00000000       0.00000000       0.00000000       0.00000000    -114.41101074
Bi       0.00000000       0.00000000       1.53212121       0.00000000       0.00000000     114.41101074
2
Properties=species:S:1:pos:R:3:forces:R:3 energy=30.33101385787616 pbc="F F F"
Bi       0.00000000       0.00000000       0.00000000       0.00000000       0.00000000    -103.40138245
Bi       0.00000000       0.00000000       1.59090909       0.00000000       0.00000000     103.40138245
2
Properties=species:S:1:pos:R:3:forces:R:3 energy=24.57216256783998 pbc="F F F"
Bi       0.00000000       0.00000000       0.00000000       0.00000000       0.00000000     -92.45619202
Bi       0.00000000       0.00000000       1.64969697       0.00000000       0.00000000      92.45619202
2
Properties=species:S:1:pos:R:3:forces:R:3 energy=19.45098312208906 pbc="F F F"
Bi       0.00000000       0.00000000       0.00000000       0.00000000       0.00000000     -81.91374207
Bi       0.00000000       0.00000000       1.70848485       0.00000000       0.00000000      81.91374207
2
Properties=species:S:1:pos:R:3:forces:R:3 energy=14.930990079877336 pbc="F F F"
Bi       0.00000000       0.00000000       0.00000000       0.00000000       0.00000000     -71.86785126
Bi       0.00000000       0.00000000       1.76727273       0.00000000       0.00000000      71.86785126
2
Properties=species:S:1:pos:R:3:forces:R:3 energy=11.004225266621065 pbc="F F F"
Bi       0.00000000       0.00000000       0.00000000       0.00000000       0.00000000     -61.70108795
Bi       0.00000000       0.00000000       1.82606061       0.00000000       0.00000000      61.70108795
2
Properties=species:S:1:pos:R:3:forces:R:3 energy=7.673821790721453 pbc="F F F"
Bi       0.00000000       0.00000000       0.00000000       0.00000000       0.00000000     -51.67591476
Bi       0.00000000       0.00000000       1.88484848       0.00000000       0.00000000      51.67591476
2
Properties=species:S:1:pos:R:3:forces:R:3 energy=4.91378756913142 pbc="F F F"
Bi       0.00000000       0.00000000       0.00000000       0.00000000       0.00000000     -42.38832474
Bi       0.00000000       0.00000000       1.94363636       0.00000000       0.00000000      42.38832474
2
Properties=species:S:1:pos:R:3:forces:R:3 energy=2.6673895804841328 pbc="F F F"
Bi       0.00000000       0.00000000       0.00000000       0.00000000       0.00000000     -34.24267960
Bi       0.00000000       0.00000000       2.00242424       0.00000000       0.00000000      34.24267960
2
Properties=species:S:1:pos:R:3:forces:R:3 energy=0.8631379298087742 pbc="F F F"
Bi       0.00000000       0.00000000       0.00000000       0.00000000       0.00000000     -27.34298515
Bi       0.00000000       0.00000000       2.06121212       0.00000000       0.00000000      27.34298515
2
Properties=species:S:1:pos:R:3:forces:R:3 energy=-0.5702424342153002 pbc="F F F"
Bi       0.00000000       0.00000000       0.00000000       0.00000000       0.00000000     -21.60374069
Bi       0.00000000       0.00000000       2.12000000       0.00000000       0.00000000      21.60374069
2
Properties=species:S:1:pos:R:3:forces:R:3 energy=-1.6969026906249611 pbc="F F F"
Bi       0.00000000       0.00000000       0.00000000       0.00000000       0.00000000     -16.88343620
Bi       0.00000000       0.00000000       2.17878788       0.00000000       0.00000000      16.88343620
2
Properties=species:S:1:pos:R:3:forces:R:3 energy=-2.5724771602823258 pbc="F F F"
Bi       0.00000000       0.00000000       0.00000000       0.00000000       0.00000000     -13.03856564
Bi       0.00000000       0.00000000       2.23757576       0.00000000       0.00000000      13.03856564
2
Properties=species:S:1:pos:R:3:forces:R:3 energy=-3.2443985332501954 pbc="F F F"
Bi       0.00000000       0.00000000       0.00000000       0.00000000       0.00000000      -9.93302727
Bi       0.00000000       0.00000000       2.29636364       0.00000000       0.00000000       9.93302727
2
Properties=species:S:1:pos:R:3:forces:R:3 energy=-3.7523884993818046 pbc="F F F"
Bi       0.00000000       0.00000000       0.00000000       0.00000000       0.00000000      -7.44175911
Bi       0.00000000       0.00000000       2.35515152       0.00000000       0.00000000       7.44175911
2
Properties=species:S:1:pos:R:3:forces:R:3 energy=-4.129206546217998 pbc="F F F"
Bi       0.00000000       0.00000000       0.00000000       0.00000000       0.00000000      -5.45278406
Bi       0.00000000       0.00000000       2.41393939       0.00000000       0.00000000       5.45278406
2
Properties=species:S:1:pos:R:3:forces:R:3 energy=-4.40140535340907 pbc="F F F"
Bi       0.00000000       0.00000000       0.00000000       0.00000000       0.00000000      -3.86743188
Bi       0.00000000       0.00000000       2.47272727       0.00000000       0.00000000       3.86743188
2
Properties=species:S:1:pos:R:3:forces:R:3 energy=-4.590158315092428 pbc="F F F"
Bi       0.00000000       0.00000000       0.00000000       0.00000000       0.00000000      -2.60089898
Bi       0.00000000       0.00000000       2.53151515       0.00000000       0.00000000       2.60089898
2
Properties=species:S:1:pos:R:3:forces:R:3 energy=-4.712089070989197 pbc="F F F"
Bi       0.00000000       0.00000000       0.00000000       0.00000000       0.00000000      -1.58393216
Bi       0.00000000       0.00000000       2.59030303       0.00000000       0.00000000       1.58393216
2
Properties=species:S:1:pos:R:3:forces:R:3 energy=-4.780226802133345 pbc="F F F"
Bi       0.00000000       0.00000000       0.00000000       0.00000000       0.00000000      -0.76325291
Bi       0.00000000       0.00000000       2.64909091       0.00000000       0.00000000       0.76325291
2
Properties=species:S:1:pos:R:3:forces:R:3 energy=-4.804902744917726 pbc="F F F"
Bi       0.00000000       0.00000000       0.00000000       0.00000000       0.00000000      -0.09982361
Bi       0.00000000       0.00000000       2.70787879       0.00000000       0.00000000       0.09982361
2
Properties=species:S:1:pos:R:3:forces:R:3 energy=-4.79449113901713 pbc="F F F"
Bi       0.00000000       0.00000000       0.00000000       0.00000000       0.00000000       0.43435210
Bi       0.00000000       0.00000000       2.76666667       0.00000000       0.00000000      -0.43435210
2
Properties=species:S:1:pos:R:3:forces:R:3 energy=-4.755967164877247 pbc="F F F"
Bi       0.00000000       0.00000000       0.00000000       0.00000000       0.00000000       0.85944366
Bi       0.00000000       0.00000000       2.82545455       0.00000000       0.00000000      -0.85944366
2
Properties=species:S:1:pos:R:3:forces:R:3 energy=-4.695283679915689 pbc="F F F"
Bi       0.00000000       0.00000000       0.00000000       0.00000000       0.00000000       1.19043303
Bi       0.00000000       0.00000000       2.88424242       0.00000000       0.00000000      -1.19043303
2
Properties=species:S:1:pos:R:3:forces:R:3 energy=-4.6176124917884 pbc="F F F"
Bi       0.00000000       0.00000000       0.00000000       0.00000000       0.00000000       1.43915260
Bi       0.00000000       0.00000000       2.94303030       0.00000000       0.00000000      -1.43915260
2
Properties=species:S:1:pos:R:3:forces:R:3 energy=-4.527481693826856 pbc="F F F"
Bi       0.00000000       0.00000000       0.00000000       0.00000000       0.00000000       1.61605370
Bi       0.00000000       0.00000000       3.00181818       0.00000000       0.00000000      -1.61605370
2
Properties=species:S:1:pos:R:3:forces:R:3 energy=-4.428809542651064 pbc="F F F"
Bi       0.00000000       0.00000000       0.00000000       0.00000000       0.00000000       1.73146629
Bi       0.00000000       0.00000000       3.06060606       0.00000000       0.00000000      -1.73146629
2
Properties=species:S:1:pos:R:3:forces:R:3 energy=-4.324899864028184 pbc="F F F"
Bi       0.00000000       0.00000000       0.00000000       0.00000000       0.00000000       1.79604149
Bi       0.00000000       0.00000000       3.11939394       0.00000000       0.00000000      -1.79604149
2
Properties=species:S:1:pos:R:3:forces:R:3 energy=-4.218427346948367 pbc="F F F"
Bi       0.00000000       0.00000000       0.00000000       0.00000000       0.00000000       1.82029068
Bi       0.00000000       0.00000000       3.17818182       0.00000000       0.00000000      -1.82029068
2
Properties=species:S:1:pos:R:3:forces:R:3 energy=-4.111481013337866 pbc="F F F"
Bi       0.00000000       0.00000000       0.00000000       0.00000000       0.00000000       1.81370938
Bi       0.00000000       0.00000000       3.23696970       0.00000000       0.00000000      -1.81370938
2
Properties=species:S:1:pos:R:3:forces:R:3 energy=-4.005630273348801 pbc="F F F"
Bi       0.00000000       0.00000000       0.00000000       0.00000000       0.00000000       1.78408647
Bi       0.00000000       0.00000000       3.29575758       0.00000000       0.00000000      -1.78408647
2
Properties=species:S:1:pos:R:3:forces:R:3 energy=-3.902049351187205 pbc="F F F"
Bi       0.00000000       0.00000000       0.00000000       0.00000000       0.00000000       1.73735631
Bi       0.00000000       0.00000000       3.35454545       0.00000000       0.00000000      -1.73735631
2
Properties=species:S:1:pos:R:3:forces:R:3 energy=-3.80160754105652 pbc="F F F"
Bi       0.00000000       0.00000000       0.00000000       0.00000000       0.00000000       1.67791510
Bi       0.00000000       0.00000000       3.41333333       0.00000000       0.00000000      -1.67791510
2
Properties=species:S:1:pos:R:3:forces:R:3 energy=-3.704950219781107 pbc="F F F"
Bi       0.00000000       0.00000000       0.00000000       0.00000000       0.00000000       1.60908425
Bi       0.00000000       0.00000000       3.47212121       0.00000000       0.00000000      -1.60908425
2
Properties=species:S:1:pos:R:3:forces:R:3 energy=-3.612550949728473 pbc="F F F"
Bi       0.00000000       0.00000000       0.00000000       0.00000000       0.00000000       1.53350484
Bi       0.00000000       0.00000000       3.53090909       0.00000000       0.00000000      -1.53350484
2
Properties=species:S:1:pos:R:3:forces:R:3 energy=-3.524737680436827 pbc="F F F"
Bi       0.00000000       0.00000000       0.00000000       0.00000000       0.00000000       1.45328820
Bi       0.00000000       0.00000000       3.58969697       0.00000000       0.00000000      -1.45328820
2
Properties=species:S:1:pos:R:3:forces:R:3 energy=-3.441739670516931 pbc="F F F"
Bi       0.00000000       0.00000000       0.00000000       0.00000000       0.00000000       1.36994374
Bi       0.00000000       0.00000000       3.64848485       0.00000000       0.00000000      -1.36994374
2
Properties=species:S:1:pos:R:3:forces:R:3 energy=-3.3637115875130754 pbc="F F F"
Bi       0.00000000       0.00000000       0.00000000       0.00000000       0.00000000       1.28427160
Bi       0.00000000       0.00000000       3.70727273       0.00000000       0.00000000      -1.28427160
2
Properties=species:S:1:pos:R:3:forces:R:3 energy=-3.290777863905153 pbc="F F F"
Bi       0.00000000       0.00000000       0.00000000       0.00000000       0.00000000       1.19666183
Bi       0.00000000       0.00000000       3.76606061       0.00000000       0.00000000      -1.19666183
2
Properties=species:S:1:pos:R:3:forces:R:3 energy=-3.223041363597986 pbc="F F F"
Bi       0.00000000       0.00000000       0.00000000       0.00000000       0.00000000       1.10763657
Bi       0.00000000       0.00000000       3.82484848       0.00000000       0.00000000      -1.10763657
2
Properties=species:S:1:pos:R:3:forces:R:3 energy=-3.160557004109196 pbc="F F F"
Bi       0.00000000       0.00000000       0.00000000       0.00000000       0.00000000       1.01808381
Bi       0.00000000       0.00000000       3.88363636       0.00000000       0.00000000      -1.01808381
2
Properties=species:S:1:pos:R:3:forces:R:3 energy=-3.103325649487647 pbc="F F F"
Bi       0.00000000       0.00000000       0.00000000       0.00000000       0.00000000       0.92918599
Bi       0.00000000       0.00000000       3.94242424       0.00000000       0.00000000      -0.92918599
2
Properties=species:S:1:pos:R:3:forces:R:3 energy=-3.051270675567943 pbc="F F F"
Bi       0.00000000       0.00000000       0.00000000       0.00000000       0.00000000       0.84220445
Bi       0.00000000       0.00000000       4.00121212       0.00000000       0.00000000      -0.84220445
2
Properties=species:S:1:pos:R:3:forces:R:3 energy=-3.004243139311284 pbc="F F F"
Bi       0.00000000       0.00000000       0.00000000       0.00000000       0.00000000       0.75829577
Bi       0.00000000       0.00000000       4.06000000       0.00000000       0.00000000      -0.75829577
2
Properties=species:S:1:pos:R:3:forces:R:3 energy=-2.962034540871126 pbc="F F F"
Bi       0.00000000       0.00000000       0.00000000       0.00000000       0.00000000       0.67842788
Bi       0.00000000       0.00000000       4.11878788       0.00000000       0.00000000      -0.67842788
2
Properties=species:S:1:pos:R:3:forces:R:3 energy=-2.924382781561906 pbc="F F F"
Bi       0.00000000       0.00000000       0.00000000       0.00000000       0.00000000       0.60331750
Bi       0.00000000       0.00000000       4.17757576       0.00000000       0.00000000      -0.60331750
2
Properties=species:S:1:pos:R:3:forces:R:3 energy=-2.8909948974914155 pbc="F F F"
Bi       0.00000000       0.00000000       0.00000000       0.00000000       0.00000000       0.53346020
Bi       0.00000000       0.00000000       4.23636364       0.00000000       0.00000000      -0.53346020
2
Properties=species:S:1:pos:R:3:forces:R:3 energy=-2.861551476976197 pbc="F F F"
Bi       0.00000000       0.00000000       0.00000000       0.00000000       0.00000000       0.46914989
Bi       0.00000000       0.00000000       4.29515152       0.00000000       0.00000000      -0.46914989
2
Properties=species:S:1:pos:R:3:forces:R:3 energy=-2.8357231232628695 pbc="F F F"
Bi       0.00000000       0.00000000       0.00000000       0.00000000       0.00000000       0.41052702
Bi       0.00000000       0.00000000       4.35393939       0.00000000       0.00000000      -0.41052702
2
Properties=species:S:1:pos:R:3:forces:R:3 energy=-2.8131724379044925 pbc="F F F"
Bi       0.00000000       0.00000000       0.00000000       0.00000000       0.00000000       0.35759583
Bi       0.00000000       0.00000000       4.41272727       0.00000000       0.00000000      -0.35759583
2
Properties=species:S:1:pos:R:3:forces:R:3 energy=-2.793568264854775 pbc="F F F"
Bi       0.00000000       0.00000000       0.00000000       0.00000000       0.00000000       0.31026781
Bi       0.00000000       0.00000000       4.47151515       0.00000000       0.00000000      -0.31026781
2
Properties=species:S:1:pos:R:3:forces:R:3 energy=-2.7765860691027457 pbc="F F F"
Bi       0.00000000       0.00000000       0.00000000       0.00000000       0.00000000       0.26835856
Bi       0.00000000       0.00000000       4.53030303       0.00000000       0.00000000      -0.26835856
2
Properties=species:S:1:pos:R:3:forces:R:3 energy=-2.761914911000169 pbc="F F F"
Bi       0.00000000       0.00000000       0.00000000       0.00000000       0.00000000       0.23160179
Bi       0.00000000       0.00000000       4.58909091       0.00000000       0.00000000      -0.23160179
2
Properties=species:S:1:pos:R:3:forces:R:3 energy=-2.749261245119699 pbc="F F F"
Bi       0.00000000       0.00000000       0.00000000       0.00000000       0.00000000       0.19965050
Bi       0.00000000       0.00000000       4.64787879       0.00000000       0.00000000      -0.19965050
2
Properties=species:S:1:pos:R:3:forces:R:3 energy=-2.7383547761812266 pbc="F F F"
Bi       0.00000000       0.00000000       0.00000000       0.00000000       0.00000000       0.17208016
Bi       0.00000000       0.00000000       4.70666667       0.00000000       0.00000000      -0.17208016
2
Properties=species:S:1:pos:R:3:forces:R:3 energy=-2.7289522547422114 pbc="F F F"
Bi       0.00000000       0.00000000       0.00000000       0.00000000       0.00000000       0.14841959
Bi       0.00000000       0.00000000       4.76545455       0.00000000       0.00000000      -0.14841959
2
Properties=species:S:1:pos:R:3:forces:R:3 energy=-2.7208371754226612 pbc="F F F"
Bi       0.00000000       0.00000000       0.00000000       0.00000000       0.00000000       0.12817670
Bi       0.00000000       0.00000000       4.82424242       0.00000000       0.00000000      -0.12817670
2
Properties=species:S:1:pos:R:3:forces:R:3 energy=-2.7138237951749318 pbc="F F F"
Bi       0.00000000       0.00000000       0.00000000       0.00000000       0.00000000       0.11091323
Bi       0.00000000       0.00000000       4.88303030       0.00000000       0.00000000      -0.11091323
2
Properties=species:S:1:pos:R:3:forces:R:3 energy=-2.707744825048552 pbc="F F F"
Bi       0.00000000       0.00000000       0.00000000       0.00000000       0.00000000       0.09630084
Bi       0.00000000       0.00000000       4.94181818       0.00000000       0.00000000      -0.09630084
2
Properties=species:S:1:pos:R:3:forces:R:3 energy=-2.7024514270224023 pbc="F F F"
Bi       0.00000000       0.00000000       0.00000000       0.00000000       0.00000000       0.08420625
Bi       0.00000000       0.00000000       5.00060606       0.00000000       0.00000000      -0.08420625
2
Properties=species:S:1:pos:R:3:forces:R:3 energy=-2.697793649426028 pbc="F F F"
Bi       0.00000000       0.00000000       0.00000000       0.00000000       0.00000000       0.07468594
Bi       0.00000000       0.00000000       5.05939394       0.00000000       0.00000000      -0.07468594
2
Properties=species:S:1:pos:R:3:forces:R:3 energy=-2.693616719196333 pbc="F F F"
Bi       0.00000000       0.00000000       0.00000000       0.00000000       0.00000000       0.06788763
Bi       0.00000000       0.00000000       5.11818182       0.00000000       0.00000000      -0.06788763
2
Properties=species:S:1:pos:R:3:forces:R:3 energy=-2.6897584113536577 pbc="F F F"
Bi       0.00000000       0.00000000       0.00000000       0.00000000       0.00000000       0.06380500
Bi       0.00000000       0.00000000       5.17696970       0.00000000       0.00000000      -0.06380500
2
Properties=species:S:1:pos:R:3:forces:R:3 energy=-2.686069793002066 pbc="F F F"
Bi       0.00000000       0.00000000       0.00000000       0.00000000       0.00000000       0.06200583
Bi       0.00000000       0.00000000       5.23575758       0.00000000       0.00000000      -0.06200583
2
Properties=species:S:1:pos:R:3:forces:R:3 energy=-2.682441381264876 pbc="F F F"
Bi       0.00000000       0.00000000       0.00000000       0.00000000       0.00000000       0.06157043
Bi       0.00000000       0.00000000       5.29454545       0.00000000       0.00000000      -0.06157043
2
Properties=species:S:1:pos:R:3:forces:R:3 energy=-2.6788265257284314 pbc="F F F"
Bi       0.00000000       0.00000000       0.00000000       0.00000000       0.00000000       0.06132980
Bi       0.00000000       0.00000000       5.35333333       0.00000000       0.00000000      -0.06132980
2
Properties=species:S:1:pos:R:3:forces:R:3 energy=-2.675257638328501 pbc="F F F"
Bi       0.00000000       0.00000000       0.00000000       0.00000000       0.00000000       0.05965470
Bi       0.00000000       0.00000000       5.41212121       0.00000000       0.00000000      -0.05965470
2
Properties=species:S:1:pos:R:3:forces:R:3 energy=-2.6718940584638813 pbc="F F F"
Bi       0.00000000       0.00000000       0.00000000       0.00000000       0.00000000       0.05388127
Bi       0.00000000       0.00000000       5.47090909       0.00000000       0.00000000      -0.05388127
2
Properties=species:S:1:pos:R:3:forces:R:3 energy=-2.6690120948529614 pbc="F F F"
Bi       0.00000000       0.00000000       0.00000000       0.00000000       0.00000000       0.04380157
Bi       0.00000000       0.00000000       5.52969697       0.00000000       0.00000000      -0.04380157
2
Properties=species:S:1:pos:R:3:forces:R:3 energy=-2.666718719666266 pbc="F F F"
Bi       0.00000000       0.00000000       0.00000000       0.00000000       0.00000000       0.03484661
Bi       0.00000000       0.00000000       5.58848485       0.00000000       0.00000000      -0.03484661
2
Properties=species:S:1:pos:R:3:forces:R:3 energy=-2.6648533226488422 pbc="F F F"
Bi       0.00000000       0.00000000       0.00000000       0.00000000       0.00000000       0.02874771
Bi       0.00000000       0.00000000       5.64727273       0.00000000       0.00000000      -0.02874771
2
Properties=species:S:1:pos:R:3:forces:R:3 energy=-2.663409031595577 pbc="F F F"
Bi       0.00000000       0.00000000       0.00000000       0.00000000       0.00000000       0.01906078
Bi       0.00000000       0.00000000       5.70606061       0.00000000       0.00000000      -0.01906078
2
Properties=species:S:1:pos:R:3:forces:R:3 energy=-2.662797644493822 pbc="F F F"
Bi       0.00000000       0.00000000       0.00000000       0.00000000       0.00000000       0.00062153
Bi       0.00000000       0.00000000       5.76484848       0.00000000       0.00000000      -0.00062153
2
Properties=species:S:1:pos:R:3:forces:R:3 energy=-2.6632771960184374 pbc="F F F"
Bi       0.00000000       0.00000000       0.00000000       0.00000000       0.00000000      -0.01458631
Bi       0.00000000       0.00000000       5.82363636       0.00000000       0.00000000       0.01458631
2
Properties=species:S:1:pos:R:3:forces:R:3 energy=-2.664103919276993 pbc="F F F"
Bi       0.00000000       0.00000000       0.00000000       0.00000000       0.00000000      -0.01048795
Bi       0.00000000       0.00000000       5.88242424       0.00000000       0.00000000       0.01048795
2
Properties=species:S:1:pos:R:3:forces:R:3 energy=-2.66430621349811 pbc="F F F"
Bi       0.00000000       0.00000000       0.00000000       0.00000000       0.00000000       0.00374737
Bi       0.00000000       0.00000000       5.94121212       0.00000000       0.00000000      -0.00374737
2
Properties=species:S:1:pos:R:3:forces:R:3 energy=-2.6638295229207043 pbc="F F F"
Bi       0.00000000       0.00000000       0.00000000       0.00000000       0.00000000       0.01019728
Bi       0.00000000       0.00000000       6.00000000       0.00000000       0.00000000      -0.01019728
