2
Properties=species:S:1:pos:R:3:forces:R:3 energy=25545.376571523364 pbc="F F F"
Br       0.00000000       0.00000000       0.00000000       0.00000000       0.00000000 -554746.68750000
Br       0.00000000       0.00000000       0.10000000       0.00000000       0.00000000  554746.68750000
2
Properties=species:S:1:pos:R:3:forces:R:3 energy=8922.834579335866 pbc="F F F"
Br       0.00000000       0.00000000       0.00000000       0.00000000       0.00000000 -126853.75000000
Br       0.00000000       0.00000000       0.15959596       0.00000000       0.00000000  126853.75000000
2
Properties=species:S:1:pos:R:3:forces:R:3 energy=4471.717391835865 pbc="F F F"
Br       0.00000000       0.00000000       0.00000000       0.00000000       0.00000000  -41448.46484375
Br       0.00000000       0.00000000       0.21919192       0.00000000       0.00000000   41448.46484375
2
Properties=species:S:1:pos:R:3:forces:R:3 energy=2861.243759023365 pbc="F F F"
Br       0.00000000       0.00000000       0.00000000       0.00000000       0.00000000  -17095.91210938
Br       0.00000000       0.00000000       0.27878788       0.00000000       0.00000000   17095.91210938
2
Properties=species:S:1:pos:R:3:forces:R:3 energy=2130.3487394952826 pbc="F F F"
Br       0.00000000       0.00000000       0.00000000       0.00000000       0.00000000   -8844.75976562
Br       0.00000000       0.00000000       0.33838384       0.00000000       0.00000000    8844.75976562
2
Properties=species:S:1:pos:R:3:forces:R:3 energy=1703.0801848172862 pbc="F F F"
Br       0.00000000       0.00000000       0.00000000       0.00000000       0.00000000   -6006.49951172
Br       0.00000000       0.00000000       0.39797980       0.00000000       0.00000000    6006.49951172
2
Properties=species:S:1:pos:R:3:forces:R:3 energy=1378.0388030003558 pbc="F F F"
Br       0.00000000       0.00000000       0.00000000       0.00000000       0.00000000   -4835.36230469
Br       0.00000000       0.00000000       0.45757576       0.00000000       0.00000000    4835.36230469
2
Properties=species:S:1:pos:R:3:forces:R:3 energy=1130.3880462055997 pbc="F F F"
Br       0.00000000       0.00000000       0.00000000       0.00000000       0.00000000   -4356.71142578
Br       0.00000000       0.00000000       0.51717172       0.00000000       0.00000000    4356.71142578
2
Properties=species:S:1:pos:R:3:forces:R:3 energy=868.9788665846241 pbc="F F F"
Br       0.00000000       0.00000000       0.00000000       0.00000000       0.00000000   -4067.62524414
Br       0.00000000       0.00000000       0.57676768       0.00000000       0.00000000    4067.62524414
2
Properties=species:S:1:pos:R:3:forces:R:3 energy=659.4747773431969 pbc="F F F"
Br       0.00000000       0.00000000       0.00000000       0.00000000       0.00000000   -2209.30444336
Br       0.00000000       0.00000000       0.63636364       0.00000000       0.00000000    2209.30444336
2
Properties=species:S:1:pos:R:3:forces:R:3 energy=554.3232882754538 pbc="F F F"
Br       0.00000000       0.00000000       0.00000000       0.00000000       0.00000000   -1599.59509277
Br       0.00000000       0.00000000       0.69595960       0.00000000       0.00000000    1599.59509277
2
Properties=species:S:1:pos:R:3:forces:R:3 energy=452.1371618484056 pbc="F F F"
Br       0.00000000       0.00000000       0.00000000       0.00000000       0.00000000   -1728.52221680
Br       0.00000000       0.00000000       0.75555556       0.00000000       0.00000000    1728.52221680
2
Properties=species:S:1:pos:R:3:forces:R:3 energy=360.35899455145216 pbc="F F F"
Br       0.00000000       0.00000000       0.00000000       0.00000000       0.00000000   -1327.09765625
Br       0.00000000       0.00000000       0.81515152       0.00000000       0.00000000    1327.09765625
2
Properties=species:S:1:pos:R:3:forces:R:3 energy=290.7128159667909 pbc="F F F"
Br       0.00000000       0.00000000       0.00000000       0.00000000       0.00000000   -1043.16857910
Br       0.00000000       0.00000000       0.87474747       0.00000000       0.00000000    1043.16857910
2
Properties=species:S:1:pos:R:3:forces:R:3 energy=233.8821131057583 pbc="F F F"
Br       0.00000000       0.00000000       0.00000000       0.00000000       0.00000000    -875.88806152
Br       0.00000000       0.00000000       0.93434343       0.00000000       0.00000000     875.88806152
2
Properties=species:S:1:pos:R:3:forces:R:3 energy=185.24414434516322 pbc="F F F"
Br       0.00000000       0.00000000       0.00000000       0.00000000       0.00000000    -750.53900146
Br       0.00000000       0.00000000       0.99393939       0.00000000       0.00000000     750.53900146
2
Properties=species:S:1:pos:R:3:forces:R:3 energy=145.3732048239857 pbc="F F F"
Br       0.00000000       0.00000000       0.00000000       0.00000000       0.00000000    -587.97894287
Br       0.00000000       0.00000000       1.05353535       0.00000000       0.00000000     587.97894287
2
Properties=species:S:1:pos:R:3:forces:R:3 energy=114.25467674268114 pbc="F F F"
Br       0.00000000       0.00000000       0.00000000       0.00000000       0.00000000    -466.28076172
Br       0.00000000       0.00000000       1.11313131       0.00000000       0.00000000     466.28076172
2
Properties=species:S:1:pos:R:3:forces:R:3 energy=88.99689001991854 pbc="F F F"
Br       0.00000000       0.00000000       0.00000000       0.00000000       0.00000000    -384.86685181
Br       0.00000000       0.00000000       1.17272727       0.00000000       0.00000000     384.86685181
2
Properties=species:S:1:pos:R:3:forces:R:3 energy=68.18069351427229 pbc="F F F"
Br       0.00000000       0.00000000       0.00000000       0.00000000       0.00000000    -314.17395020
Br       0.00000000       0.00000000       1.23232323       0.00000000       0.00000000     314.17395020
2
Properties=species:S:1:pos:R:3:forces:R:3 energy=51.453063899430326 pbc="F F F"
Br       0.00000000       0.00000000       0.00000000       0.00000000       0.00000000    -249.04937744
Br       0.00000000       0.00000000       1.29191919       0.00000000       0.00000000     249.04937744
2
Properties=species:S:1:pos:R:3:forces:R:3 energy=38.23882135610051 pbc="F F F"
Br       0.00000000       0.00000000       0.00000000       0.00000000       0.00000000    -196.13073730
Br       0.00000000       0.00000000       1.35151515       0.00000000       0.00000000     196.13073730
2
Properties=species:S:1:pos:R:3:forces:R:3 energy=27.926702881569067 pbc="F F F"
Br       0.00000000       0.00000000       0.00000000       0.00000000       0.00000000    -151.04747009
Br       0.00000000       0.00000000       1.41111111       0.00000000       0.00000000     151.04747009
2
Properties=species:S:1:pos:R:3:forces:R:3 energy=20.08919376904664 pbc="F F F"
Br       0.00000000       0.00000000       0.00000000       0.00000000       0.00000000    -113.33509827
Br       0.00000000       0.00000000       1.47070707       0.00000000       0.00000000     113.33509827
2
Properties=species:S:1:pos:R:3:forces:R:3 energy=14.246317716108752 pbc="F F F"
Br       0.00000000       0.00000000       0.00000000       0.00000000       0.00000000     -84.18863678
Br       0.00000000       0.00000000       1.53030303       0.00000000       0.00000000      84.18863678
2
Properties=species:S:1:pos:R:3:forces:R:3 energy=9.898064656826085 pbc="F F F"
Br       0.00000000       0.00000000       0.00000000       0.00000000       0.00000000     -62.86900330
Br       0.00000000       0.00000000       1.58989899       0.00000000       0.00000000      62.86900330
2
Properties=species:S:1:pos:R:3:forces:R:3 energy=6.640758082845449 pbc="F F F"
Br       0.00000000       0.00000000       0.00000000       0.00000000       0.00000000     -47.21256256
Br       0.00000000       0.00000000       1.64949495       0.00000000       0.00000000      47.21256256
2
Properties=species:S:1:pos:R:3:forces:R:3 energy=4.194809347015164 pbc="F F F"
Br       0.00000000       0.00000000       0.00000000       0.00000000       0.00000000     -35.40008163
Br       0.00000000       0.00000000       1.70909091       0.00000000       0.00000000      35.40008163
2
Properties=species:S:1:pos:R:3:forces:R:3 energy=2.367747333934012 pbc="F F F"
Br       0.00000000       0.00000000       0.00000000       0.00000000       0.00000000     -26.30082512
Br       0.00000000       0.00000000       1.76868687       0.00000000       0.00000000      26.30082512
2
Properties=species:S:1:pos:R:3:forces:R:3 energy=1.0196469810336817 pbc="F F F"
Br       0.00000000       0.00000000       0.00000000       0.00000000       0.00000000     -19.23923302
Br       0.00000000       0.00000000       1.82828283       0.00000000       0.00000000      19.23923302
2
Properties=species:S:1:pos:R:3:forces:R:3 energy=0.042732306543428335 pbc="F F F"
Br       0.00000000       0.00000000       0.00000000       0.00000000       0.00000000     -13.78477955
Br       0.00000000       0.00000000       1.88787879       0.00000000       0.00000000      13.78477955
2
Properties=species:S:1:pos:R:3:forces:R:3 energy=-0.6490024819483514 pbc="F F F"
Br       0.00000000       0.00000000       0.00000000       0.00000000       0.00000000      -9.62127018
Br       0.00000000       0.00000000       1.94747475       0.00000000       0.00000000       9.62127018
2
Properties=species:S:1:pos:R:3:forces:R:3 energy=-1.1243573793104422 pbc="F F F"
Br       0.00000000       0.00000000       0.00000000       0.00000000       0.00000000      -6.48080397
Br       0.00000000       0.00000000       2.00707071       0.00000000       0.00000000       6.48080397
2
Properties=species:S:1:pos:R:3:forces:R:3 energy=-1.436923783627722 pbc="F F F"
Br       0.00000000       0.00000000       0.00000000       0.00000000       0.00000000      -4.11973572
Br       0.00000000       0.00000000       2.06666667       0.00000000       0.00000000       4.11973572
2
Properties=species:S:1:pos:R:3:forces:R:3 energy=-1.626693012487647 pbc="F F F"
Br       0.00000000       0.00000000       0.00000000       0.00000000       0.00000000      -2.32922959
Br       0.00000000       0.00000000       2.12626263       0.00000000       0.00000000       2.32922959
2
Properties=species:S:1:pos:R:3:forces:R:3 energy=-1.7227968992044487 pbc="F F F"
Br       0.00000000       0.00000000       0.00000000       0.00000000       0.00000000      -0.95612121
Br       0.00000000       0.00000000       2.18585859       0.00000000       0.00000000       0.95612121
2
Properties=species:S:1:pos:R:3:forces:R:3 energy=-1.7470903927658235 pbc="F F F"
Br       0.00000000       0.00000000       0.00000000       0.00000000       0.00000000       0.09142645
Br       0.00000000       0.00000000       2.24545455       0.00000000       0.00000000      -0.09142645
2
Properties=species:S:1:pos:R:3:forces:R:3 energy=-1.7174696260304692 pbc="F F F"
Br       0.00000000       0.00000000       0.00000000       0.00000000       0.00000000       0.85781634
Br       0.00000000       0.00000000       2.30505051       0.00000000       0.00000000      -0.85781634
2
Properties=species:S:1:pos:R:3:forces:R:3 energy=-1.6500255507531074 pbc="F F F"
Br       0.00000000       0.00000000       0.00000000       0.00000000       0.00000000       1.36341691
Br       0.00000000       0.00000000       2.36464646       0.00000000       0.00000000      -1.36341691
2
Properties=species:S:1:pos:R:3:forces:R:3 energy=-1.5597956586931039 pbc="F F F"
Br       0.00000000       0.00000000       0.00000000       0.00000000       0.00000000       1.62610626
Br       0.00000000       0.00000000       2.42424242       0.00000000       0.00000000      -1.62610626
2
Properties=species:S:1:pos:R:3:forces:R:3 energy=-1.4604796452841335 pbc="F F F"
Br       0.00000000       0.00000000       0.00000000       0.00000000       0.00000000       1.67424083
Br       0.00000000       0.00000000       2.48383838       0.00000000       0.00000000      -1.67424083
2
Properties=species:S:1:pos:R:3:forces:R:3 energy=-1.363661581691151 pbc="F F F"
Br       0.00000000       0.00000000       0.00000000       0.00000000       0.00000000       1.55049360
Br       0.00000000       0.00000000       2.54343434       0.00000000       0.00000000      -1.55049360
2
Properties=species:S:1:pos:R:3:forces:R:3 energy=-1.2780001851271408 pbc="F F F"
Br       0.00000000       0.00000000       0.00000000       0.00000000       0.00000000       1.30981600
Br       0.00000000       0.00000000       2.60303030       0.00000000       0.00000000      -1.30981600
2
Properties=species:S:1:pos:R:3:forces:R:3 energy=-1.2086536265274381 pbc="F F F"
Br       0.00000000       0.00000000       0.00000000       0.00000000       0.00000000       1.01309133
Br       0.00000000       0.00000000       2.66262626       0.00000000       0.00000000      -1.01309133
2
Properties=species:S:1:pos:R:3:forces:R:3 energy=-1.1572179920457917 pbc="F F F"
Br       0.00000000       0.00000000       0.00000000       0.00000000       0.00000000       0.71732932
Br       0.00000000       0.00000000       2.72222222       0.00000000       0.00000000      -0.71732932
2
Properties=species:S:1:pos:R:3:forces:R:3 energy=-1.12227038123459 pbc="F F F"
Br       0.00000000       0.00000000       0.00000000       0.00000000       0.00000000       0.46531019
Br       0.00000000       0.00000000       2.78181818       0.00000000       0.00000000      -0.46531019
2
Properties=species:S:1:pos:R:3:forces:R:3 energy=-1.1004251125175835 pbc="F F F"
Br       0.00000000       0.00000000       0.00000000       0.00000000       0.00000000       0.27969927
Br       0.00000000       0.00000000       2.84141414       0.00000000       0.00000000      -0.27969927
2
Properties=species:S:1:pos:R:3:forces:R:3 energy=-1.0875320529823154 pbc="F F F"
Br       0.00000000       0.00000000       0.00000000       0.00000000       0.00000000       0.16415907
Br       0.00000000       0.00000000       2.90101010       0.00000000       0.00000000      -0.16415907
2
Properties=species:S:1:pos:R:3:forces:R:3 energy=-1.0796481487637173 pbc="F F F"
Br       0.00000000       0.00000000       0.00000000       0.00000000       0.00000000       0.10932961
Br       0.00000000       0.00000000       2.96060606       0.00000000       0.00000000      -0.10932961
2
Properties=species:S:1:pos:R:3:forces:R:3 energy=-1.0736042789279825 pbc="F F F"
Br       0.00000000       0.00000000       0.00000000       0.00000000       0.00000000       0.09962191
Br       0.00000000       0.00000000       3.02020202       0.00000000       0.00000000      -0.09962191
2
Properties=species:S:1:pos:R:3:forces:R:3 energy=-1.0672082945876167 pbc="F F F"
Br       0.00000000       0.00000000       0.00000000       0.00000000       0.00000000       0.11847550
Br       0.00000000       0.00000000       3.07979798       0.00000000       0.00000000      -0.11847550
2
Properties=species:S:1:pos:R:3:forces:R:3 energy=-1.0592028882798372 pbc="F F F"
Br       0.00000000       0.00000000       0.00000000       0.00000000       0.00000000       0.15151419
Br       0.00000000       0.00000000       3.13939394       0.00000000       0.00000000      -0.15151419
2
Properties=species:S:1:pos:R:3:forces:R:3 energy=-1.0490860191937095 pbc="F F F"
Br       0.00000000       0.00000000       0.00000000       0.00000000       0.00000000       0.18787107
Br       0.00000000       0.00000000       3.19898990       0.00000000       0.00000000      -0.18787107
2
Properties=species:S:1:pos:R:3:forces:R:3 energy=-1.0368881555336722 pbc="F F F"
Br       0.00000000       0.00000000       0.00000000       0.00000000       0.00000000       0.22043793
Br       0.00000000       0.00000000       3.25858586       0.00000000       0.00000000      -0.22043793
2
Properties=species:S:1:pos:R:3:forces:R:3 energy=-1.022962502888659 pbc="F F F"
Br       0.00000000       0.00000000       0.00000000       0.00000000       0.00000000       0.24550730
Br       0.00000000       0.00000000       3.31818182       0.00000000       0.00000000      -0.24550730
2
Properties=species:S:1:pos:R:3:forces:R:3 energy=-1.0077965352816638 pbc="F F F"
Br       0.00000000       0.00000000       0.00000000       0.00000000       0.00000000       0.26201189
Br       0.00000000       0.00000000       3.37777778       0.00000000       0.00000000      -0.26201189
2
Properties=species:S:1:pos:R:3:forces:R:3 energy=-0.9918902079613643 pbc="F F F"
Br       0.00000000       0.00000000       0.00000000       0.00000000       0.00000000       0.27059034
Br       0.00000000       0.00000000       3.43737374       0.00000000       0.00000000      -0.27059034
2
Properties=species:S:1:pos:R:3:forces:R:3 energy=-0.9756720400618873 pbc="F F F"
Br       0.00000000       0.00000000       0.00000000       0.00000000       0.00000000       0.27275348
Br       0.00000000       0.00000000       3.49696970       0.00000000       0.00000000      -0.27275348
2
Properties=species:S:1:pos:R:3:forces:R:3 energy=-0.9594726999056745 pbc="F F F"
Br       0.00000000       0.00000000       0.00000000       0.00000000       0.00000000       0.27027053
Br       0.00000000       0.00000000       3.55656566       0.00000000       0.00000000      -0.27027053
2
Properties=species:S:1:pos:R:3:forces:R:3 energy=-0.9435169988061309 pbc="F F F"
Br       0.00000000       0.00000000       0.00000000       0.00000000       0.00000000       0.26479685
Br       0.00000000       0.00000000       3.61616162       0.00000000       0.00000000      -0.26479685
2
Properties=species:S:1:pos:R:3:forces:R:3 energy=-0.9279433689471619 pbc="F F F"
Br       0.00000000       0.00000000       0.00000000       0.00000000       0.00000000       0.25766951
Br       0.00000000       0.00000000       3.67575758       0.00000000       0.00000000      -0.25766951
2
Properties=species:S:1:pos:R:3:forces:R:3 energy=-0.9128190772387491 pbc="F F F"
Br       0.00000000       0.00000000       0.00000000       0.00000000       0.00000000       0.24983424
Br       0.00000000       0.00000000       3.73535354       0.00000000       0.00000000      -0.24983424
2
Properties=species:S:1:pos:R:3:forces:R:3 energy=-0.8981677678305291 pbc="F F F"
Br       0.00000000       0.00000000       0.00000000       0.00000000       0.00000000       0.24185394
Br       0.00000000       0.00000000       3.79494949       0.00000000       0.00000000      -0.24185394
2
Properties=species:S:1:pos:R:3:forces:R:3 energy=-0.8839894712654399 pbc="F F F"
Br       0.00000000       0.00000000       0.00000000       0.00000000       0.00000000       0.23398347
Br       0.00000000       0.00000000       3.85454545       0.00000000       0.00000000      -0.23398347
2
Properties=species:S:1:pos:R:3:forces:R:3 energy=-0.8702757597305878 pbc="F F F"
Br       0.00000000       0.00000000       0.00000000       0.00000000       0.00000000       0.22627817
Br       0.00000000       0.00000000       3.91414141       0.00000000       0.00000000      -0.22627817
2
Properties=species:S:1:pos:R:3:forces:R:3 energy=-0.8570158667447499 pbc="F F F"
Br       0.00000000       0.00000000       0.00000000       0.00000000       0.00000000       0.21871926
Br       0.00000000       0.00000000       3.97373737       0.00000000       0.00000000      -0.21871926
2
Properties=species:S:1:pos:R:3:forces:R:3 energy=-0.8442026369514342 pbc="F F F"
Br       0.00000000       0.00000000       0.00000000       0.00000000       0.00000000       0.21132556
Br       0.00000000       0.00000000       4.03333333       0.00000000       0.00000000      -0.21132556
2
Properties=species:S:1:pos:R:3:forces:R:3 energy=-0.8318222165152018 pbc="F F F"
Br       0.00000000       0.00000000       0.00000000       0.00000000       0.00000000       0.20421937
Br       0.00000000       0.00000000       4.09292929       0.00000000       0.00000000      -0.20421937
2
Properties=species:S:1:pos:R:3:forces:R:3 energy=-0.8198507895373647 pbc="F F F"
Br       0.00000000       0.00000000       0.00000000       0.00000000       0.00000000       0.19765165
Br       0.00000000       0.00000000       4.15252525       0.00000000       0.00000000      -0.19765165
2
Properties=species:S:1:pos:R:3:forces:R:3 energy=-0.8082463720378975 pbc="F F F"
Br       0.00000000       0.00000000       0.00000000       0.00000000       0.00000000       0.19196074
Br       0.00000000       0.00000000       4.21212121       0.00000000       0.00000000      -0.19196074
2
Properties=species:S:1:pos:R:3:forces:R:3 energy=-0.7969457915414463 pbc="F F F"
Br       0.00000000       0.00000000       0.00000000       0.00000000       0.00000000       0.18750952
Br       0.00000000       0.00000000       4.27171717       0.00000000       0.00000000      -0.18750952
2
Properties=species:S:1:pos:R:3:forces:R:3 energy=-0.7858661708578035 pbc="F F F"
Br       0.00000000       0.00000000       0.00000000       0.00000000       0.00000000       0.18459760
Br       0.00000000       0.00000000       4.33131313       0.00000000       0.00000000      -0.18459760
2
Properties=species:S:1:pos:R:3:forces:R:3 energy=-0.7749096045866478 pbc="F F F"
Br       0.00000000       0.00000000       0.00000000       0.00000000       0.00000000       0.18338400
Br       0.00000000       0.00000000       4.39090909       0.00000000       0.00000000      -0.18338400
2
Properties=species:S:1:pos:R:3:forces:R:3 energy=-0.7639748964808315 pbc="F F F"
Br       0.00000000       0.00000000       0.00000000       0.00000000       0.00000000       0.18382786
Br       0.00000000       0.00000000       4.45050505       0.00000000       0.00000000      -0.18382786
2
Properties=species:S:1:pos:R:3:forces:R:3 energy=-0.7529709148465878 pbc="F F F"
Br       0.00000000       0.00000000       0.00000000       0.00000000       0.00000000       0.18566707
Br       0.00000000       0.00000000       4.51010101       0.00000000       0.00000000      -0.18566707
2
Properties=species:S:1:pos:R:3:forces:R:3 energy=-0.7418267746423662 pbc="F F F"
Br       0.00000000       0.00000000       0.00000000       0.00000000       0.00000000       0.18841717
Br       0.00000000       0.00000000       4.56969697       0.00000000       0.00000000      -0.18841717
2
Properties=species:S:1:pos:R:3:forces:R:3 energy=-0.7305079273571189 pbc="F F F"
Br       0.00000000       0.00000000       0.00000000       0.00000000       0.00000000       0.19141015
Br       0.00000000       0.00000000       4.62929293       0.00000000       0.00000000      -0.19141015
2
Properties=species:S:1:pos:R:3:forces:R:3 energy=-0.7190226626683154 pbc="F F F"
Br       0.00000000       0.00000000       0.00000000       0.00000000       0.00000000       0.19388652
Br       0.00000000       0.00000000       4.68888889       0.00000000       0.00000000      -0.19388652
2
Properties=species:S:1:pos:R:3:forces:R:3 energy=-0.7074229419070345 pbc="F F F"
Br       0.00000000       0.00000000       0.00000000       0.00000000       0.00000000       0.19513062
Br       0.00000000       0.00000000       4.74848485       0.00000000       0.00000000      -0.19513062
2
Properties=species:S:1:pos:R:3:forces:R:3 energy=-0.6957988197719762 pbc="F F F"
Br       0.00000000       0.00000000       0.00000000       0.00000000       0.00000000       0.19467494
Br       0.00000000       0.00000000       4.80808081       0.00000000       0.00000000      -0.19467494
2
Properties=species:S:1:pos:R:3:forces:R:3 energy=-0.6842532424441208 pbc="F F F"
Br       0.00000000       0.00000000       0.00000000       0.00000000       0.00000000       0.19252470
Br       0.00000000       0.00000000       4.86767677       0.00000000       0.00000000      -0.19252470
2
Properties=species:S:1:pos:R:3:forces:R:3 energy=-0.6728709791036205 pbc="F F F"
Br       0.00000000       0.00000000       0.00000000       0.00000000       0.00000000       0.18939202
Br       0.00000000       0.00000000       4.92727273       0.00000000       0.00000000      -0.18939202
2
Properties=species:S:1:pos:R:3:forces:R:3 energy=-0.6616682734279873 pbc="F F F"
Br       0.00000000       0.00000000       0.00000000       0.00000000       0.00000000       0.18683247
Br       0.00000000       0.00000000       4.98686869       0.00000000       0.00000000      -0.18683247
2
Properties=species:S:1:pos:R:3:forces:R:3 energy=-0.6505460672012079 pbc="F F F"
Br       0.00000000       0.00000000       0.00000000       0.00000000       0.00000000       0.18716542
Br       0.00000000       0.00000000       5.04646465       0.00000000       0.00000000      -0.18716542
2
Properties=species:S:1:pos:R:3:forces:R:3 energy=-0.639251138085351 pbc="F F F"
Br       0.00000000       0.00000000       0.00000000       0.00000000       0.00000000       0.19298139
Br       0.00000000       0.00000000       5.10606061       0.00000000       0.00000000      -0.19298139
2
Properties=species:S:1:pos:R:3:forces:R:3 energy=-0.6273955483457833 pbc="F F F"
Br       0.00000000       0.00000000       0.00000000       0.00000000       0.00000000       0.20609029
Br       0.00000000       0.00000000       5.16565657       0.00000000       0.00000000      -0.20609029
2
Properties=species:S:1:pos:R:3:forces:R:3 energy=-0.6145498661196213 pbc="F F F"
Br       0.00000000       0.00000000       0.00000000       0.00000000       0.00000000       0.22590643
Br       0.00000000       0.00000000       5.22525253       0.00000000       0.00000000      -0.22590643
2
Properties=species:S:1:pos:R:3:forces:R:3 energy=-0.600425637408143 pbc="F F F"
Br       0.00000000       0.00000000       0.00000000       0.00000000       0.00000000       0.24783258
Br       0.00000000       0.00000000       5.28484848       0.00000000       0.00000000      -0.24783258
2
Properties=species:S:1:pos:R:3:forces:R:3 energy=-0.5851355462840319 pbc="F F F"
Br       0.00000000       0.00000000       0.00000000       0.00000000       0.00000000       0.26349944
Br       0.00000000       0.00000000       5.34444444       0.00000000       0.00000000      -0.26349944
2
Properties=species:S:1:pos:R:3:forces:R:3 energy=-0.5692533680565316 pbc="F F F"
Br       0.00000000       0.00000000       0.00000000       0.00000000       0.00000000       0.26793915
Br       0.00000000       0.00000000       5.40404040       0.00000000       0.00000000      -0.26793915
2
Properties=species:S:1:pos:R:3:forces:R:3 energy=-0.5531991770589206 pbc="F F F"
Br       0.00000000       0.00000000       0.00000000       0.00000000       0.00000000       0.27243334
Br       0.00000000       0.00000000       5.46363636       0.00000000       0.00000000      -0.27243334
2
Properties=species:S:1:pos:R:3:forces:R:3 energy=-0.5365463874041095 pbc="F F F"
Br       0.00000000       0.00000000       0.00000000       0.00000000       0.00000000       0.28715339
Br       0.00000000       0.00000000       5.52323232       0.00000000       0.00000000      -0.28715339
2
Properties=species:S:1:pos:R:3:forces:R:3 energy=-0.5193246075452292 pbc="F F F"
Br       0.00000000       0.00000000       0.00000000       0.00000000       0.00000000       0.28516501
Br       0.00000000       0.00000000       5.58282828       0.00000000       0.00000000      -0.28516501
2
Properties=species:S:1:pos:R:3:forces:R:3 energy=-0.5031875539842162 pbc="F F F"
Br       0.00000000       0.00000000       0.00000000       0.00000000       0.00000000       0.25303975
Br       0.00000000       0.00000000       5.64242424       0.00000000       0.00000000      -0.25303975
2
Properties=species:S:1:pos:R:3:forces:R:3 energy=-0.48916499406994146 pbc="F F F"
Br       0.00000000       0.00000000       0.00000000       0.00000000       0.00000000       0.22087856
Br       0.00000000       0.00000000       5.70202020       0.00000000       0.00000000      -0.22087856
2
Properties=species:S:1:pos:R:3:forces:R:3 energy=-0.47617751627176313 pbc="F F F"
Br       0.00000000       0.00000000       0.00000000       0.00000000       0.00000000       0.22016715
Br       0.00000000       0.00000000       5.76161616       0.00000000       0.00000000      -0.22016715
2
Properties=species:S:1:pos:R:3:forces:R:3 energy=-0.4631565092750874 pbc="F F F"
Br       0.00000000       0.00000000       0.00000000       0.00000000       0.00000000       0.20718059
Br       0.00000000       0.00000000       5.82121212       0.00000000       0.00000000      -0.20718059
2
Properties=species:S:1:pos:R:3:forces:R:3 energy=-0.45288471389760254 pbc="F F F"
Br       0.00000000       0.00000000       0.00000000       0.00000000       0.00000000       0.12998478
Br       0.00000000       0.00000000       5.88080808       0.00000000       0.00000000      -0.12998478
2
Properties=species:S:1:pos:R:3:forces:R:3 energy=-0.44789264161732856 pbc="F F F"
Br       0.00000000       0.00000000       0.00000000       0.00000000       0.00000000       0.04012305
Br       0.00000000       0.00000000       5.94040404       0.00000000       0.00000000      -0.04012305
2
Properties=species:S:1:pos:R:3:forces:R:3 energy=-0.44699283467971823 pbc="F F F"
Br       0.00000000       0.00000000       0.00000000       0.00000000       0.00000000       0.00273432
Br       0.00000000       0.00000000       6.00000000       0.00000000       0.00000000      -0.00273432
