2
Properties=species:S:1:pos:R:3:forces:R:3 energy=638.1180842991439 pbc="F F F"
C        0.00000000       0.00000000       0.00000000       0.00000000       0.00000000   -4781.81445312
C        0.00000000       0.00000000       0.18000000       0.00000000       0.00000000    4781.81445312
2
Properties=species:S:1:pos:R:3:forces:R:3 energy=451.6562617909622 pbc="F F F"
C        0.00000000       0.00000000       0.00000000       0.00000000       0.00000000   -2070.10937500
C        0.00000000       0.00000000       0.23878788       0.00000000       0.00000000    2070.10937500
2
Properties=species:S:1:pos:R:3:forces:R:3 energy=355.17588459686436 pbc="F F F"
C        0.00000000       0.00000000       0.00000000       0.00000000       0.00000000   -1424.70007324
C        0.00000000       0.00000000       0.29757576       0.00000000       0.00000000    1424.70007324
2
Properties=species:S:1:pos:R:3:forces:R:3 energy=279.99802815947146 pbc="F F F"
C        0.00000000       0.00000000       0.00000000       0.00000000       0.00000000   -1185.31494141
C        0.00000000       0.00000000       0.35636364       0.00000000       0.00000000    1185.31494141
2
Properties=species:S:1:pos:R:3:forces:R:3 energy=202.58243979957214 pbc="F F F"
C        0.00000000       0.00000000       0.00000000       0.00000000       0.00000000   -1311.22607422
C        0.00000000       0.00000000       0.41515152       0.00000000       0.00000000    1311.22607422
2
Properties=species:S:1:pos:R:3:forces:R:3 energy=145.1051906920782 pbc="F F F"
C        0.00000000       0.00000000       0.00000000       0.00000000       0.00000000    -771.26214600
C        0.00000000       0.00000000       0.47393939       0.00000000       0.00000000     771.26214600
2
Properties=species:S:1:pos:R:3:forces:R:3 energy=103.8124737817898 pbc="F F F"
C        0.00000000       0.00000000       0.00000000       0.00000000       0.00000000    -633.16839600
C        0.00000000       0.00000000       0.53272727       0.00000000       0.00000000     633.16839600
2
Properties=species:S:1:pos:R:3:forces:R:3 energy=71.5882917748447 pbc="F F F"
C        0.00000000       0.00000000       0.00000000       0.00000000       0.00000000    -468.89663696
C        0.00000000       0.00000000       0.59151515       0.00000000       0.00000000     468.89663696
2
Properties=species:S:1:pos:R:3:forces:R:3 energy=47.73612293913617 pbc="F F F"
C        0.00000000       0.00000000       0.00000000       0.00000000       0.00000000    -349.17834473
C        0.00000000       0.00000000       0.65030303       0.00000000       0.00000000     349.17834473
2
Properties=species:S:1:pos:R:3:forces:R:3 energy=29.930293252503425 pbc="F F F"
C        0.00000000       0.00000000       0.00000000       0.00000000       0.00000000    -259.69519043
C        0.00000000       0.00000000       0.70909091       0.00000000       0.00000000     259.69519043
2
Properties=species:S:1:pos:R:3:forces:R:3 energy=16.903937989020278 pbc="F F F"
C        0.00000000       0.00000000       0.00000000       0.00000000       0.00000000    -185.67767334
C        0.00000000       0.00000000       0.76787879       0.00000000       0.00000000     185.67767334
2
Properties=species:S:1:pos:R:3:forces:R:3 energy=7.835148261237512 pbc="F F F"
C        0.00000000       0.00000000       0.00000000       0.00000000       0.00000000    -126.09725952
C        0.00000000       0.00000000       0.82666667       0.00000000       0.00000000     126.09725952
2
Properties=species:S:1:pos:R:3:forces:R:3 energy=1.650944456538451 pbc="F F F"
C        0.00000000       0.00000000       0.00000000       0.00000000       0.00000000     -87.15356445
C        0.00000000       0.00000000       0.88545455       0.00000000       0.00000000      87.15356445
2
Properties=species:S:1:pos:R:3:forces:R:3 energy=-2.6352908872777148 pbc="F F F"
C        0.00000000       0.00000000       0.00000000       0.00000000       0.00000000     -60.06419754
C        0.00000000       0.00000000       0.94424242       0.00000000       0.00000000      60.06419754
2
Properties=species:S:1:pos:R:3:forces:R:3 energy=-5.563675867302006 pbc="F F F"
C        0.00000000       0.00000000       0.00000000       0.00000000       0.00000000     -40.77647018
C        0.00000000       0.00000000       1.00303030       0.00000000       0.00000000      40.77647018
2
Properties=species:S:1:pos:R:3:forces:R:3 energy=-7.547528491842826 pbc="F F F"
C        0.00000000       0.00000000       0.00000000       0.00000000       0.00000000     -27.45189095
C        0.00000000       0.00000000       1.06181818       0.00000000       0.00000000      27.45189095
2
Properties=species:S:1:pos:R:3:forces:R:3 energy=-8.852725595108067 pbc="F F F"
C        0.00000000       0.00000000       0.00000000       0.00000000       0.00000000     -17.34365082
C        0.00000000       0.00000000       1.12060606       0.00000000       0.00000000      17.34365082
2
Properties=species:S:1:pos:R:3:forces:R:3 energy=-9.628481711005428 pbc="F F F"
C        0.00000000       0.00000000       0.00000000       0.00000000       0.00000000      -9.38620281
C        0.00000000       0.00000000       1.17939394       0.00000000       0.00000000       9.38620281
2
Properties=species:S:1:pos:R:3:forces:R:3 energy=-9.993356453544756 pbc="F F F"
C        0.00000000       0.00000000       0.00000000       0.00000000       0.00000000      -3.31157207
C        0.00000000       0.00000000       1.23818182       0.00000000       0.00000000       3.31157207
2
Properties=species:S:1:pos:R:3:forces:R:3 energy=-10.047743840437436 pbc="F F F"
C        0.00000000       0.00000000       0.00000000       0.00000000       0.00000000       1.23113275
C        0.00000000       0.00000000       1.29696970       0.00000000       0.00000000      -1.23113275
2
Properties=species:S:1:pos:R:3:forces:R:3 energy=-9.873900974601883 pbc="F F F"
C        0.00000000       0.00000000       0.00000000       0.00000000       0.00000000       4.47938681
C        0.00000000       0.00000000       1.35575758       0.00000000       0.00000000      -4.47938681
2
Properties=species:S:1:pos:R:3:forces:R:3 energy=-9.543831184171129 pbc="F F F"
C        0.00000000       0.00000000       0.00000000       0.00000000       0.00000000       6.56797743
C        0.00000000       0.00000000       1.41454545       0.00000000       0.00000000      -6.56797743
2
Properties=species:S:1:pos:R:3:forces:R:3 energy=-9.121135349847188 pbc="F F F"
C        0.00000000       0.00000000       0.00000000       0.00000000       0.00000000       7.66593790
C        0.00000000       0.00000000       1.47333333       0.00000000       0.00000000      -7.66593790
2
Properties=species:S:1:pos:R:3:forces:R:3 energy=-8.657003809738086 pbc="F F F"
C        0.00000000       0.00000000       0.00000000       0.00000000       0.00000000       8.02590942
C        0.00000000       0.00000000       1.53212121       0.00000000       0.00000000      -8.02590942
2
Properties=species:S:1:pos:R:3:forces:R:3 energy=-8.18586413982212 pbc="F F F"
C        0.00000000       0.00000000       0.00000000       0.00000000       0.00000000       7.95585823
C        0.00000000       0.00000000       1.59090909       0.00000000       0.00000000      -7.95585823
2
Properties=species:S:1:pos:R:3:forces:R:3 energy=-7.724682240554653 pbc="F F F"
C        0.00000000       0.00000000       0.00000000       0.00000000       0.00000000       7.72494364
C        0.00000000       0.00000000       1.64969697       0.00000000       0.00000000      -7.72494364
2
Properties=species:S:1:pos:R:3:forces:R:3 energy=-7.277306247351605 pbc="F F F"
C        0.00000000       0.00000000       0.00000000       0.00000000       0.00000000       7.50427341
C        0.00000000       0.00000000       1.70848485       0.00000000       0.00000000      -7.50427341
2
Properties=species:S:1:pos:R:3:forces:R:3 energy=-6.841284577784701 pbc="F F F"
C        0.00000000       0.00000000       0.00000000       0.00000000       0.00000000       7.33459282
C        0.00000000       0.00000000       1.76727273       0.00000000       0.00000000      -7.33459282
2
Properties=species:S:1:pos:R:3:forces:R:3 energy=-6.415166647735638 pbc="F F F"
C        0.00000000       0.00000000       0.00000000       0.00000000       0.00000000       7.15229654
C        0.00000000       0.00000000       1.82606061       0.00000000       0.00000000      -7.15229654
2
Properties=species:S:1:pos:R:3:forces:R:3 energy=-6.0022845666826035 pbc="F F F"
C        0.00000000       0.00000000       0.00000000       0.00000000       0.00000000       6.87323809
C        0.00000000       0.00000000       1.88484848       0.00000000       0.00000000      -6.87323809
2
Properties=species:S:1:pos:R:3:forces:R:3 energy=-5.609682177507244 pbc="F F F"
C        0.00000000       0.00000000       0.00000000       0.00000000       0.00000000       6.46161366
C        0.00000000       0.00000000       1.94363636       0.00000000       0.00000000      -6.46161366
2
Properties=species:S:1:pos:R:3:forces:R:3 energy=-5.244718712461973 pbc="F F F"
C        0.00000000       0.00000000       0.00000000       0.00000000       0.00000000       5.94037962
C        0.00000000       0.00000000       2.00242424       0.00000000       0.00000000      -5.94037962
2
Properties=species:S:1:pos:R:3:forces:R:3 energy=-4.9124240150191225 pbc="F F F"
C        0.00000000       0.00000000       0.00000000       0.00000000       0.00000000       5.35829926
C        0.00000000       0.00000000       2.06121212       0.00000000       0.00000000      -5.35829926
2
Properties=species:S:1:pos:R:3:forces:R:3 energy=-4.615052574613152 pbc="F F F"
C        0.00000000       0.00000000       0.00000000       0.00000000       0.00000000       4.75872231
C        0.00000000       0.00000000       2.12000000       0.00000000       0.00000000      -4.75872231
2
Properties=species:S:1:pos:R:3:forces:R:3 energy=-4.352559626952287 pbc="F F F"
C        0.00000000       0.00000000       0.00000000       0.00000000       0.00000000       4.17706347
C        0.00000000       0.00000000       2.17878788       0.00000000       0.00000000      -4.17706347
2
Properties=species:S:1:pos:R:3:forces:R:3 energy=-4.123037527495268 pbc="F F F"
C        0.00000000       0.00000000       0.00000000       0.00000000       0.00000000       3.64057565
C        0.00000000       0.00000000       2.23757576       0.00000000       0.00000000      -3.64057565
2
Properties=species:S:1:pos:R:3:forces:R:3 energy=-3.923300031990434 pbc="F F F"
C        0.00000000       0.00000000       0.00000000       0.00000000       0.00000000       3.16555619
C        0.00000000       0.00000000       2.29636364       0.00000000       0.00000000      -3.16555619
2
Properties=species:S:1:pos:R:3:forces:R:3 energy=-3.7495497209064497 pbc="F F F"
C        0.00000000       0.00000000       0.00000000       0.00000000       0.00000000       2.75636792
C        0.00000000       0.00000000       2.35515152       0.00000000       0.00000000      -2.75636792
2
Properties=species:S:1:pos:R:3:forces:R:3 energy=-3.5980370813415536 pbc="F F F"
C        0.00000000       0.00000000       0.00000000       0.00000000       0.00000000       2.40728784
C        0.00000000       0.00000000       2.41393939       0.00000000       0.00000000      -2.40728784
2
Properties=species:S:1:pos:R:3:forces:R:3 energy=-3.465548357082793 pbc="F F F"
C        0.00000000       0.00000000       0.00000000       0.00000000       0.00000000       2.10722351
C        0.00000000       0.00000000       2.47272727       0.00000000       0.00000000      -2.10722351
2
Properties=species:S:1:pos:R:3:forces:R:3 energy=-3.349540976215048 pbc="F F F"
C        0.00000000       0.00000000       0.00000000       0.00000000       0.00000000       1.84498417
C        0.00000000       0.00000000       2.53151515       0.00000000       0.00000000      -1.84498417
2
Properties=species:S:1:pos:R:3:forces:R:3 energy=-3.248038623779702 pbc="F F F"
C        0.00000000       0.00000000       0.00000000       0.00000000       0.00000000       1.61267495
C        0.00000000       0.00000000       2.59030303       0.00000000       0.00000000      -1.61267495
2
Properties=species:S:1:pos:R:3:forces:R:3 energy=-3.159424703849034 pbc="F F F"
C        0.00000000       0.00000000       0.00000000       0.00000000       0.00000000       1.40621531
C        0.00000000       0.00000000       2.64909091       0.00000000       0.00000000      -1.40621531
2
Properties=species:S:1:pos:R:3:forces:R:3 energy=-3.0822301889244983 pbc="F F F"
C        0.00000000       0.00000000       0.00000000       0.00000000       0.00000000       1.22393548
C        0.00000000       0.00000000       2.70787879       0.00000000       0.00000000      -1.22393548
2
Properties=species:S:1:pos:R:3:forces:R:3 energy=-3.0150649086206043 pbc="F F F"
C        0.00000000       0.00000000       0.00000000       0.00000000       0.00000000       1.06481791
C        0.00000000       0.00000000       2.76666667       0.00000000       0.00000000      -1.06481791
2
Properties=species:S:1:pos:R:3:forces:R:3 energy=-2.95660860855224 pbc="F F F"
C        0.00000000       0.00000000       0.00000000       0.00000000       0.00000000       0.92734045
C        0.00000000       0.00000000       2.82545455       0.00000000       0.00000000      -0.92734045
2
Properties=species:S:1:pos:R:3:forces:R:3 energy=-2.9056534727890404 pbc="F F F"
C        0.00000000       0.00000000       0.00000000       0.00000000       0.00000000       0.80917031
C        0.00000000       0.00000000       2.88424242       0.00000000       0.00000000      -0.80917031
2
Properties=species:S:1:pos:R:3:forces:R:3 energy=-2.861147355229848 pbc="F F F"
C        0.00000000       0.00000000       0.00000000       0.00000000       0.00000000       0.70745093
C        0.00000000       0.00000000       2.94303030       0.00000000       0.00000000      -0.70745093
2
Properties=species:S:1:pos:R:3:forces:R:3 energy=-2.822208828483593 pbc="F F F"
C        0.00000000       0.00000000       0.00000000       0.00000000       0.00000000       0.61927205
C        0.00000000       0.00000000       3.00181818       0.00000000       0.00000000      -0.61927205
2
Properties=species:S:1:pos:R:3:forces:R:3 energy=-2.788120759238949 pbc="F F F"
C        0.00000000       0.00000000       0.00000000       0.00000000       0.00000000       0.54208499
C        0.00000000       0.00000000       3.06060606       0.00000000       0.00000000      -0.54208499
2
Properties=species:S:1:pos:R:3:forces:R:3 energy=-2.758297185504858 pbc="F F F"
C        0.00000000       0.00000000       0.00000000       0.00000000       0.00000000       0.47388041
C        0.00000000       0.00000000       3.11939394       0.00000000       0.00000000      -0.47388041
2
Properties=species:S:1:pos:R:3:forces:R:3 energy=-2.7322556062023784 pbc="F F F"
C        0.00000000       0.00000000       0.00000000       0.00000000       0.00000000       0.41324514
C        0.00000000       0.00000000       3.17818182       0.00000000       0.00000000      -0.41324514
2
Properties=species:S:1:pos:R:3:forces:R:3 energy=-2.7095799755997705 pbc="F F F"
C        0.00000000       0.00000000       0.00000000       0.00000000       0.00000000       0.35925159
C        0.00000000       0.00000000       3.23696970       0.00000000       0.00000000      -0.35925159
2
Properties=species:S:1:pos:R:3:forces:R:3 energy=-2.6898977470207255 pbc="F F F"
C        0.00000000       0.00000000       0.00000000       0.00000000       0.00000000       0.31130990
C        0.00000000       0.00000000       3.29575758       0.00000000       0.00000000      -0.31130990
2
Properties=species:S:1:pos:R:3:forces:R:3 energy=-2.6728668984546973 pbc="F F F"
C        0.00000000       0.00000000       0.00000000       0.00000000       0.00000000       0.26901156
C        0.00000000       0.00000000       3.35454545       0.00000000       0.00000000      -0.26901156
2
Properties=species:S:1:pos:R:3:forces:R:3 energy=-2.6581645930431983 pbc="F F F"
C        0.00000000       0.00000000       0.00000000       0.00000000       0.00000000       0.23202619
C        0.00000000       0.00000000       3.41333333       0.00000000       0.00000000      -0.23202619
2
Properties=species:S:1:pos:R:3:forces:R:3 energy=-2.645488777525812 pbc="F F F"
C        0.00000000       0.00000000       0.00000000       0.00000000       0.00000000       0.20001584
C        0.00000000       0.00000000       3.47212121       0.00000000       0.00000000      -0.20001584
2
Properties=species:S:1:pos:R:3:forces:R:3 energy=-2.6345575501797462 pbc="F F F"
C        0.00000000       0.00000000       0.00000000       0.00000000       0.00000000       0.17260087
C        0.00000000       0.00000000       3.53090909       0.00000000       0.00000000      -0.17260087
2
Properties=species:S:1:pos:R:3:forces:R:3 energy=-2.625113119692972 pbc="F F F"
C        0.00000000       0.00000000       0.00000000       0.00000000       0.00000000       0.14935681
C        0.00000000       0.00000000       3.58969697       0.00000000       0.00000000      -0.14935681
2
Properties=species:S:1:pos:R:3:forces:R:3 energy=-2.616924103818816 pbc="F F F"
C        0.00000000       0.00000000       0.00000000       0.00000000       0.00000000       0.12982388
C        0.00000000       0.00000000       3.64848485       0.00000000       0.00000000      -0.12982388
2
Properties=species:S:1:pos:R:3:forces:R:3 energy=-2.6097856925587615 pbc="F F F"
C        0.00000000       0.00000000       0.00000000       0.00000000       0.00000000       0.11352848
C        0.00000000       0.00000000       3.70727273       0.00000000       0.00000000      -0.11352848
2
Properties=species:S:1:pos:R:3:forces:R:3 energy=-2.603521261655618 pbc="F F F"
C        0.00000000       0.00000000       0.00000000       0.00000000       0.00000000       0.10001360
C        0.00000000       0.00000000       3.76606061       0.00000000       0.00000000      -0.10001360
2
Properties=species:S:1:pos:R:3:forces:R:3 energy=-2.5979799701927497 pbc="F F F"
C        0.00000000       0.00000000       0.00000000       0.00000000       0.00000000       0.08887227
C        0.00000000       0.00000000       3.82484848       0.00000000       0.00000000      -0.08887227
2
Properties=species:S:1:pos:R:3:forces:R:3 energy=-2.5930319724236073 pbc="F F F"
C        0.00000000       0.00000000       0.00000000       0.00000000       0.00000000       0.07977136
C        0.00000000       0.00000000       3.88363636       0.00000000       0.00000000      -0.07977136
2
Properties=species:S:1:pos:R:3:forces:R:3 energy=-2.588565578131577 pbc="F F F"
C        0.00000000       0.00000000       0.00000000       0.00000000       0.00000000       0.07246565
C        0.00000000       0.00000000       3.94242424       0.00000000       0.00000000      -0.07246565
2
Properties=species:S:1:pos:R:3:forces:R:3 energy=-2.584480604628208 pbc="F F F"
C        0.00000000       0.00000000       0.00000000       0.00000000       0.00000000       0.06677767
C        0.00000000       0.00000000       4.00121212       0.00000000       0.00000000      -0.06677767
2
Properties=species:S:1:pos:R:3:forces:R:3 energy=-2.580685539092957 pbc="F F F"
C        0.00000000       0.00000000       0.00000000       0.00000000       0.00000000       0.06256087
C        0.00000000       0.00000000       4.06000000       0.00000000       0.00000000      -0.06256087
2
Properties=species:S:1:pos:R:3:forces:R:3 energy=-2.5770992593763227 pbc="F F F"
C        0.00000000       0.00000000       0.00000000       0.00000000       0.00000000       0.05963429
C        0.00000000       0.00000000       4.11878788       0.00000000       0.00000000      -0.05963429
2
Properties=species:S:1:pos:R:3:forces:R:3 energy=-2.5736534712466628 pbc="F F F"
C        0.00000000       0.00000000       0.00000000       0.00000000       0.00000000       0.05773381
C        0.00000000       0.00000000       4.17757576       0.00000000       0.00000000      -0.05773381
2
Properties=species:S:1:pos:R:3:forces:R:3 energy=-2.5702984621143115 pbc="F F F"
C        0.00000000       0.00000000       0.00000000       0.00000000       0.00000000       0.05648851
C        0.00000000       0.00000000       4.23636364       0.00000000       0.00000000      -0.05648851
2
Properties=species:S:1:pos:R:3:forces:R:3 energy=-2.5670074456270253 pbc="F F F"
C        0.00000000       0.00000000       0.00000000       0.00000000       0.00000000       0.05545674
C        0.00000000       0.00000000       4.29515152       0.00000000       0.00000000      -0.05545674
2
Properties=species:S:1:pos:R:3:forces:R:3 energy=-2.5637823458843907 pbc="F F F"
C        0.00000000       0.00000000       0.00000000       0.00000000       0.00000000       0.05421502
C        0.00000000       0.00000000       4.35393939       0.00000000       0.00000000      -0.05421502
2
Properties=species:S:1:pos:R:3:forces:R:3 energy=-2.56064378425348 pbc="F F F"
C        0.00000000       0.00000000       0.00000000       0.00000000       0.00000000       0.05246034
C        0.00000000       0.00000000       4.41272727       0.00000000       0.00000000      -0.05246034
2
Properties=species:S:1:pos:R:3:forces:R:3 energy=-2.557626371185889 pbc="F F F"
C        0.00000000       0.00000000       0.00000000       0.00000000       0.00000000       0.05008707
C        0.00000000       0.00000000       4.47151515       0.00000000       0.00000000      -0.05008707
2
Properties=species:S:1:pos:R:3:forces:R:3 energy=-2.5547646668440387 pbc="F F F"
C        0.00000000       0.00000000       0.00000000       0.00000000       0.00000000       0.04719985
C        0.00000000       0.00000000       4.53030303       0.00000000       0.00000000      -0.04719985
2
Properties=species:S:1:pos:R:3:forces:R:3 energy=-2.552081991267064 pbc="F F F"
C        0.00000000       0.00000000       0.00000000       0.00000000       0.00000000       0.04406022
C        0.00000000       0.00000000       4.58909091       0.00000000       0.00000000      -0.04406022
2
Properties=species:S:1:pos:R:3:forces:R:3 energy=-2.5495832939882 pbc="F F F"
C        0.00000000       0.00000000       0.00000000       0.00000000       0.00000000       0.04097873
C        0.00000000       0.00000000       4.64787879       0.00000000       0.00000000      -0.04097873
2
Properties=species:S:1:pos:R:3:forces:R:3 energy=-2.547257801189772 pbc="F F F"
C        0.00000000       0.00000000       0.00000000       0.00000000       0.00000000       0.03819418
C        0.00000000       0.00000000       4.70666667       0.00000000       0.00000000      -0.03819418
2
Properties=species:S:1:pos:R:3:forces:R:3 energy=-2.5450847369571368 pbc="F F F"
C        0.00000000       0.00000000       0.00000000       0.00000000       0.00000000       0.03579141
C        0.00000000       0.00000000       4.76545455       0.00000000       0.00000000      -0.03579141
2
Properties=species:S:1:pos:R:3:forces:R:3 energy=-2.5430443123121016 pbc="F F F"
C        0.00000000       0.00000000       0.00000000       0.00000000       0.00000000       0.03365555
C        0.00000000       0.00000000       4.82424242       0.00000000       0.00000000      -0.03365555
2
Properties=species:S:1:pos:R:3:forces:R:3 energy=-2.541127980577634 pbc="F F F"
C        0.00000000       0.00000000       0.00000000       0.00000000       0.00000000       0.03152715
C        0.00000000       0.00000000       4.88303030       0.00000000       0.00000000      -0.03152715
2
Properties=species:S:1:pos:R:3:forces:R:3 energy=-2.5393429629751116 pbc="F F F"
C        0.00000000       0.00000000       0.00000000       0.00000000       0.00000000       0.02912893
C        0.00000000       0.00000000       4.94181818       0.00000000       0.00000000      -0.02912893
2
Properties=species:S:1:pos:R:3:forces:R:3 energy=-2.537710118894207 pbc="F F F"
C        0.00000000       0.00000000       0.00000000       0.00000000       0.00000000       0.02637204
C        0.00000000       0.00000000       5.00060606       0.00000000       0.00000000      -0.02637204
2
Properties=species:S:1:pos:R:3:forces:R:3 energy=-2.5362439185342573 pbc="F F F"
C        0.00000000       0.00000000       0.00000000       0.00000000       0.00000000       0.02353084
C        0.00000000       0.00000000       5.05939394       0.00000000       0.00000000      -0.02353084
2
Properties=species:S:1:pos:R:3:forces:R:3 energy=-2.5349326458466637 pbc="F F F"
C        0.00000000       0.00000000       0.00000000       0.00000000       0.00000000       0.02123945
C        0.00000000       0.00000000       5.11818182       0.00000000       0.00000000      -0.02123945
2
Properties=species:S:1:pos:R:3:forces:R:3 energy=-2.533722910632727 pbc="F F F"
C        0.00000000       0.00000000       0.00000000       0.00000000       0.00000000       0.02014822
C        0.00000000       0.00000000       5.17696970       0.00000000       0.00000000      -0.02014822
2
Properties=species:S:1:pos:R:3:forces:R:3 energy=-2.532539670358595 pbc="F F F"
C        0.00000000       0.00000000       0.00000000       0.00000000       0.00000000       0.02025641
C        0.00000000       0.00000000       5.23575758       0.00000000       0.00000000      -0.02025641
2
Properties=species:S:1:pos:R:3:forces:R:3 energy=-2.531341066527447 pbc="F F F"
C        0.00000000       0.00000000       0.00000000       0.00000000       0.00000000       0.02035439
C        0.00000000       0.00000000       5.29454545       0.00000000       0.00000000      -0.02035439
2
Properties=species:S:1:pos:R:3:forces:R:3 energy=-2.5301870887353046 pbc="F F F"
C        0.00000000       0.00000000       0.00000000       0.00000000       0.00000000       0.01840607
C        0.00000000       0.00000000       5.35333333       0.00000000       0.00000000      -0.01840607
2
Properties=species:S:1:pos:R:3:forces:R:3 energy=-2.52923241567902 pbc="F F F"
C        0.00000000       0.00000000       0.00000000       0.00000000       0.00000000       0.01377899
C        0.00000000       0.00000000       5.41212121       0.00000000       0.00000000      -0.01377899
2
Properties=species:S:1:pos:R:3:forces:R:3 energy=-2.5285526112789274 pbc="F F F"
C        0.00000000       0.00000000       0.00000000       0.00000000       0.00000000       0.00992208
C        0.00000000       0.00000000       5.47090909       0.00000000       0.00000000      -0.00992208
2
Properties=species:S:1:pos:R:3:forces:R:3 energy=-2.5279834254088165 pbc="F F F"
C        0.00000000       0.00000000       0.00000000       0.00000000       0.00000000       0.00990188
C        0.00000000       0.00000000       5.52969697       0.00000000       0.00000000      -0.00990188
2
Properties=species:S:1:pos:R:3:forces:R:3 energy=-2.5273904428340366 pbc="F F F"
C        0.00000000       0.00000000       0.00000000       0.00000000       0.00000000       0.00996788
C        0.00000000       0.00000000       5.58848485       0.00000000       0.00000000      -0.00996788
2
Properties=species:S:1:pos:R:3:forces:R:3 energy=-2.526842653520993 pbc="F F F"
C        0.00000000       0.00000000       0.00000000       0.00000000       0.00000000       0.00847459
C        0.00000000       0.00000000       5.64727273       0.00000000       0.00000000      -0.00847459
2
Properties=species:S:1:pos:R:3:forces:R:3 energy=-2.526401206351481 pbc="F F F"
C        0.00000000       0.00000000       0.00000000       0.00000000       0.00000000       0.00683701
C        0.00000000       0.00000000       5.70606061       0.00000000       0.00000000      -0.00683701
2
Properties=species:S:1:pos:R:3:forces:R:3 energy=-2.5259467954573362 pbc="F F F"
C        0.00000000       0.00000000       0.00000000       0.00000000       0.00000000       0.00947880
C        0.00000000       0.00000000       5.76484848       0.00000000       0.00000000      -0.00947880
2
Properties=species:S:1:pos:R:3:forces:R:3 energy=-2.5252757416208866 pbc="F F F"
C        0.00000000       0.00000000       0.00000000       0.00000000       0.00000000       0.01251450
C        0.00000000       0.00000000       5.82363636       0.00000000       0.00000000      -0.01251450
2
Properties=species:S:1:pos:R:3:forces:R:3 energy=-2.5246202167638243 pbc="F F F"
C        0.00000000       0.00000000       0.00000000       0.00000000       0.00000000       0.00887152
C        0.00000000       0.00000000       5.88242424       0.00000000       0.00000000      -0.00887152
2
Properties=species:S:1:pos:R:3:forces:R:3 energy=-2.5242713045201257 pbc="F F F"
C        0.00000000       0.00000000       0.00000000       0.00000000       0.00000000       0.00317101
C        0.00000000       0.00000000       5.94121212       0.00000000       0.00000000      -0.00317101
2
Properties=species:S:1:pos:R:3:forces:R:3 energy=-2.5241803625898944 pbc="F F F"
C        0.00000000       0.00000000       0.00000000       0.00000000       0.00000000       0.00071887
C        0.00000000       0.00000000       6.00000000       0.00000000       0.00000000      -0.00071887
