2
Properties=species:S:1:pos:R:3:forces:R:3 energy=11592.840245882482 pbc="F F F"
Ca       0.00000000       0.00000000       0.00000000       0.00000000       0.00000000 -209423.03125000
Ca       0.00000000       0.00000000       0.10000000       0.00000000       0.00000000  209423.03125000
2
Properties=species:S:1:pos:R:3:forces:R:3 energy=5123.525792757482 pbc="F F F"
Ca       0.00000000       0.00000000       0.00000000       0.00000000       0.00000000  -51654.87109375
Ca       0.00000000       0.00000000       0.15959596       0.00000000       0.00000000   51654.87109375
2
Properties=species:S:1:pos:R:3:forces:R:3 energy=3261.5126091637317 pbc="F F F"
Ca       0.00000000       0.00000000       0.00000000       0.00000000       0.00000000  -18046.25195312
Ca       0.00000000       0.00000000       0.21919192       0.00000000       0.00000000   18046.25195312
2
Properties=species:S:1:pos:R:3:forces:R:3 energy=2532.0768181481067 pbc="F F F"
Ca       0.00000000       0.00000000       0.00000000       0.00000000       0.00000000   -8273.25878906
Ca       0.00000000       0.00000000       0.27878788       0.00000000       0.00000000    8273.25878906
2
Properties=species:S:1:pos:R:3:forces:R:3 energy=2146.6232048668567 pbc="F F F"
Ca       0.00000000       0.00000000       0.00000000       0.00000000       0.00000000   -5292.85302734
Ca       0.00000000       0.00000000       0.33838384       0.00000000       0.00000000    5292.85302734
2
Properties=species:S:1:pos:R:3:forces:R:3 energy=1852.1949822232782 pbc="F F F"
Ca       0.00000000       0.00000000       0.00000000       0.00000000       0.00000000   -4852.35888672
Ca       0.00000000       0.00000000       0.39797980       0.00000000       0.00000000    4852.35888672
2
Properties=species:S:1:pos:R:3:forces:R:3 energy=1547.6708123140745 pbc="F F F"
Ca       0.00000000       0.00000000       0.00000000       0.00000000       0.00000000   -5463.80224609
Ca       0.00000000       0.00000000       0.45757576       0.00000000       0.00000000    5463.80224609
2
Properties=species:S:1:pos:R:3:forces:R:3 energy=1197.2113396831671 pbc="F F F"
Ca       0.00000000       0.00000000       0.00000000       0.00000000       0.00000000   -6266.53173828
Ca       0.00000000       0.00000000       0.51717172       0.00000000       0.00000000    6266.53173828
2
Properties=species:S:1:pos:R:3:forces:R:3 energy=811.4257562377584 pbc="F F F"
Ca       0.00000000       0.00000000       0.00000000       0.00000000       0.00000000   -6538.87011719
Ca       0.00000000       0.00000000       0.57676768       0.00000000       0.00000000    6538.87011719
2
Properties=species:S:1:pos:R:3:forces:R:3 energy=438.55527291534867 pbc="F F F"
Ca       0.00000000       0.00000000       0.00000000       0.00000000       0.00000000   -5779.77587891
Ca       0.00000000       0.00000000       0.63636364       0.00000000       0.00000000    5779.77587891
2
Properties=species:S:1:pos:R:3:forces:R:3 energy=135.11606405768654 pbc="F F F"
Ca       0.00000000       0.00000000       0.00000000       0.00000000       0.00000000   -4233.26855469
Ca       0.00000000       0.00000000       0.69595960       0.00000000       0.00000000    4233.26855469
2
Properties=species:S:1:pos:R:3:forces:R:3 energy=10.595157812062897 pbc="F F F"
Ca       0.00000000       0.00000000       0.00000000       0.00000000       0.00000000     903.09948730
Ca       0.00000000       0.00000000       0.75555556       0.00000000       0.00000000    -903.09948730
2
Properties=species:S:1:pos:R:3:forces:R:3 energy=47.38286449129589 pbc="F F F"
Ca       0.00000000       0.00000000       0.00000000       0.00000000       0.00000000     433.33569336
Ca       0.00000000       0.00000000       0.81515152       0.00000000       0.00000000    -433.33569336
2
Properties=species:S:1:pos:R:3:forces:R:3 energy=71.48821160180721 pbc="F F F"
Ca       0.00000000       0.00000000       0.00000000       0.00000000       0.00000000     368.39389038
Ca       0.00000000       0.00000000       0.87474747       0.00000000       0.00000000    -368.39389038
2
Properties=species:S:1:pos:R:3:forces:R:3 energy=90.04595909723609 pbc="F F F"
Ca       0.00000000       0.00000000       0.00000000       0.00000000       0.00000000     238.24777222
Ca       0.00000000       0.00000000       0.93434343       0.00000000       0.00000000    -238.24777222
2
Properties=species:S:1:pos:R:3:forces:R:3 energy=98.67764328315052 pbc="F F F"
Ca       0.00000000       0.00000000       0.00000000       0.00000000       0.00000000      64.52735901
Ca       0.00000000       0.00000000       0.99393939       0.00000000       0.00000000     -64.52735901
2
Properties=species:S:1:pos:R:3:forces:R:3 energy=98.61846322285886 pbc="F F F"
Ca       0.00000000       0.00000000       0.00000000       0.00000000       0.00000000     -64.10492706
Ca       0.00000000       0.00000000       1.05353535       0.00000000       0.00000000      64.10492706
2
Properties=species:S:1:pos:R:3:forces:R:3 energy=90.70422678001057 pbc="F F F"
Ca       0.00000000       0.00000000       0.00000000       0.00000000       0.00000000    -192.64413452
Ca       0.00000000       0.00000000       1.11313131       0.00000000       0.00000000     192.64413452
2
Properties=species:S:1:pos:R:3:forces:R:3 energy=77.05444852130796 pbc="F F F"
Ca       0.00000000       0.00000000       0.00000000       0.00000000       0.00000000    -254.89744568
Ca       0.00000000       0.00000000       1.17272727       0.00000000       0.00000000     254.89744568
2
Properties=species:S:1:pos:R:3:forces:R:3 energy=61.45785538010453 pbc="F F F"
Ca       0.00000000       0.00000000       0.00000000       0.00000000       0.00000000    -259.70318604
Ca       0.00000000       0.00000000       1.23232323       0.00000000       0.00000000     259.70318604
2
Properties=species:S:1:pos:R:3:forces:R:3 energy=46.921817490901674 pbc="F F F"
Ca       0.00000000       0.00000000       0.00000000       0.00000000       0.00000000    -223.91023254
Ca       0.00000000       0.00000000       1.29191919       0.00000000       0.00000000     223.91023254
2
Properties=species:S:1:pos:R:3:forces:R:3 energy=34.98040026500816 pbc="F F F"
Ca       0.00000000       0.00000000       0.00000000       0.00000000       0.00000000    -176.73587036
Ca       0.00000000       0.00000000       1.35151515       0.00000000       0.00000000     176.73587036
2
Properties=species:S:1:pos:R:3:forces:R:3 energy=25.791690669226707 pbc="F F F"
Ca       0.00000000       0.00000000       0.00000000       0.00000000       0.00000000    -132.44859314
Ca       0.00000000       0.00000000       1.41111111       0.00000000       0.00000000     132.44859314
2
Properties=species:S:1:pos:R:3:forces:R:3 energy=19.07960401906689 pbc="F F F"
Ca       0.00000000       0.00000000       0.00000000       0.00000000       0.00000000     -93.95165253
Ca       0.00000000       0.00000000       1.47070707       0.00000000       0.00000000      93.95165253
2
Properties=species:S:1:pos:R:3:forces:R:3 energy=14.42754130694412 pbc="F F F"
Ca       0.00000000       0.00000000       0.00000000       0.00000000       0.00000000     -63.76234055
Ca       0.00000000       0.00000000       1.53030303       0.00000000       0.00000000      63.76234055
2
Properties=species:S:1:pos:R:3:forces:R:3 energy=11.285631404938469 pbc="F F F"
Ca       0.00000000       0.00000000       0.00000000       0.00000000       0.00000000     -43.20850754
Ca       0.00000000       0.00000000       1.58989899       0.00000000       0.00000000      43.20850754
2
Properties=species:S:1:pos:R:3:forces:R:3 energy=9.122142057956758 pbc="F F F"
Ca       0.00000000       0.00000000       0.00000000       0.00000000       0.00000000     -30.44589043
Ca       0.00000000       0.00000000       1.64949495       0.00000000       0.00000000      30.44589043
2
Properties=species:S:1:pos:R:3:forces:R:3 energy=7.559005237038476 pbc="F F F"
Ca       0.00000000       0.00000000       0.00000000       0.00000000       0.00000000     -22.63519478
Ca       0.00000000       0.00000000       1.70909091       0.00000000       0.00000000      22.63519478
2
Properties=species:S:1:pos:R:3:forces:R:3 energy=6.367738160262903 pbc="F F F"
Ca       0.00000000       0.00000000       0.00000000       0.00000000       0.00000000     -17.69484520
Ca       0.00000000       0.00000000       1.76868687       0.00000000       0.00000000      17.69484520
2
Properties=species:S:1:pos:R:3:forces:R:3 energy=5.418088960512686 pbc="F F F"
Ca       0.00000000       0.00000000       0.00000000       0.00000000       0.00000000     -14.37886143
Ca       0.00000000       0.00000000       1.82828283       0.00000000       0.00000000      14.37886143
2
Properties=species:S:1:pos:R:3:forces:R:3 energy=4.634429902013588 pbc="F F F"
Ca       0.00000000       0.00000000       0.00000000       0.00000000       0.00000000     -12.04994297
Ca       0.00000000       0.00000000       1.88787879       0.00000000       0.00000000      12.04994297
2
Properties=species:S:1:pos:R:3:forces:R:3 energy=3.9698709080463943 pbc="F F F"
Ca       0.00000000       0.00000000       0.00000000       0.00000000       0.00000000     -10.32441616
Ca       0.00000000       0.00000000       1.94747475       0.00000000       0.00000000      10.32441616
2
Properties=species:S:1:pos:R:3:forces:R:3 energy=3.3980080436437694 pbc="F F F"
Ca       0.00000000       0.00000000       0.00000000       0.00000000       0.00000000      -8.89841461
Ca       0.00000000       0.00000000       2.00707071       0.00000000       0.00000000       8.89841461
2
Properties=species:S:1:pos:R:3:forces:R:3 energy=2.906369452207198 pbc="F F F"
Ca       0.00000000       0.00000000       0.00000000       0.00000000       0.00000000      -7.62360096
Ca       0.00000000       0.00000000       2.06666667       0.00000000       0.00000000       7.62360096
2
Properties=species:S:1:pos:R:3:forces:R:3 energy=2.486061790290922 pbc="F F F"
Ca       0.00000000       0.00000000       0.00000000       0.00000000       0.00000000      -6.51490498
Ca       0.00000000       0.00000000       2.12626263       0.00000000       0.00000000       6.51490498
2
Properties=species:S:1:pos:R:3:forces:R:3 energy=2.12531026352989 pbc="F F F"
Ca       0.00000000       0.00000000       0.00000000       0.00000000       0.00000000      -5.63213062
Ca       0.00000000       0.00000000       2.18585859       0.00000000       0.00000000       5.63213062
2
Properties=species:S:1:pos:R:3:forces:R:3 energy=1.810114353760025 pbc="F F F"
Ca       0.00000000       0.00000000       0.00000000       0.00000000       0.00000000      -4.98098326
Ca       0.00000000       0.00000000       2.24545455       0.00000000       0.00000000       4.98098326
2
Properties=species:S:1:pos:R:3:forces:R:3 energy=1.528029688211755 pbc="F F F"
Ca       0.00000000       0.00000000       0.00000000       0.00000000       0.00000000      -4.51017570
Ca       0.00000000       0.00000000       2.30505051       0.00000000       0.00000000       4.51017570
2
Properties=species:S:1:pos:R:3:forces:R:3 energy=1.270196864744785 pbc="F F F"
Ca       0.00000000       0.00000000       0.00000000       0.00000000       0.00000000      -4.15799665
Ca       0.00000000       0.00000000       2.36464646       0.00000000       0.00000000       4.15799665
2
Properties=species:S:1:pos:R:3:forces:R:3 energy=1.0310064840798432 pbc="F F F"
Ca       0.00000000       0.00000000       0.00000000       0.00000000       0.00000000      -3.87799215
Ca       0.00000000       0.00000000       2.42424242       0.00000000       0.00000000       3.87799215
2
Properties=species:S:1:pos:R:3:forces:R:3 energy=0.8071795590037009 pbc="F F F"
Ca       0.00000000       0.00000000       0.00000000       0.00000000       0.00000000      -3.63807178
Ca       0.00000000       0.00000000       2.48383838       0.00000000       0.00000000       3.63807178
2
Properties=species:S:1:pos:R:3:forces:R:3 energy=0.5970441298893904 pbc="F F F"
Ca       0.00000000       0.00000000       0.00000000       0.00000000       0.00000000      -3.41520619
Ca       0.00000000       0.00000000       2.54343434       0.00000000       0.00000000       3.41520619
2
Properties=species:S:1:pos:R:3:forces:R:3 energy=0.40009752535318593 pbc="F F F"
Ca       0.00000000       0.00000000       0.00000000       0.00000000       0.00000000      -3.19344378
Ca       0.00000000       0.00000000       2.60303030       0.00000000       0.00000000       3.19344378
2
Properties=species:S:1:pos:R:3:forces:R:3 energy=0.21657841570024602 pbc="F F F"
Ca       0.00000000       0.00000000       0.00000000       0.00000000       0.00000000      -2.96349430
Ca       0.00000000       0.00000000       2.66262626       0.00000000       0.00000000       2.96349430
2
Properties=species:S:1:pos:R:3:forces:R:3 energy=0.04710321637994015 pbc="F F F"
Ca       0.00000000       0.00000000       0.00000000       0.00000000       0.00000000      -2.72204661
Ca       0.00000000       0.00000000       2.72222222       0.00000000       0.00000000       2.72204661
2
Properties=species:S:1:pos:R:3:forces:R:3 energy=-0.10765917151683917 pbc="F F F"
Ca       0.00000000       0.00000000       0.00000000       0.00000000       0.00000000      -2.47025299
Ca       0.00000000       0.00000000       2.78181818       0.00000000       0.00000000       2.47025299
2
Properties=species:S:1:pos:R:3:forces:R:3 energy=-0.24720017397827093 pbc="F F F"
Ca       0.00000000       0.00000000       0.00000000       0.00000000       0.00000000      -2.21196914
Ca       0.00000000       0.00000000       2.84141414       0.00000000       0.00000000       2.21196914
2
Properties=species:S:1:pos:R:3:forces:R:3 energy=-0.3712823913677909 pbc="F F F"
Ca       0.00000000       0.00000000       0.00000000       0.00000000       0.00000000      -1.95242357
Ca       0.00000000       0.00000000       2.90101010       0.00000000       0.00000000       1.95242357
2
Properties=species:S:1:pos:R:3:forces:R:3 energy=-0.48000219243265935 pbc="F F F"
Ca       0.00000000       0.00000000       0.00000000       0.00000000       0.00000000      -1.69733310
Ca       0.00000000       0.00000000       2.96060606       0.00000000       0.00000000       1.69733310
2
Properties=species:S:1:pos:R:3:forces:R:3 energy=-0.5737911464433927 pbc="F F F"
Ca       0.00000000       0.00000000       0.00000000       0.00000000       0.00000000      -1.45224726
Ca       0.00000000       0.00000000       3.02020202       0.00000000       0.00000000       1.45224726
2
Properties=species:S:1:pos:R:3:forces:R:3 energy=-0.653391014585535 pbc="F F F"
Ca       0.00000000       0.00000000       0.00000000       0.00000000       0.00000000      -1.22187841
Ca       0.00000000       0.00000000       3.07979798       0.00000000       0.00000000       1.22187841
2
Properties=species:S:1:pos:R:3:forces:R:3 energy=-0.7197910005679553 pbc="F F F"
Ca       0.00000000       0.00000000       0.00000000       0.00000000       0.00000000      -1.00966060
Ca       0.00000000       0.00000000       3.13939394       0.00000000       0.00000000       1.00966060
2
Properties=species:S:1:pos:R:3:forces:R:3 energy=-0.7741347547057096 pbc="F F F"
Ca       0.00000000       0.00000000       0.00000000       0.00000000       0.00000000      -0.81754172
Ca       0.00000000       0.00000000       3.19898990       0.00000000       0.00000000       0.81754172
2
Properties=species:S:1:pos:R:3:forces:R:3 energy=-0.8176449421182358 pbc="F F F"
Ca       0.00000000       0.00000000       0.00000000       0.00000000       0.00000000      -0.64603662
Ca       0.00000000       0.00000000       3.25858586       0.00000000       0.00000000       0.64603662
2
Properties=species:S:1:pos:R:3:forces:R:3 energy=-0.8515350224753317 pbc="F F F"
Ca       0.00000000       0.00000000       0.00000000       0.00000000       0.00000000      -0.49452347
Ca       0.00000000       0.00000000       3.31818182       0.00000000       0.00000000       0.49452347
2
Properties=species:S:1:pos:R:3:forces:R:3 energy=-0.8769577164019912 pbc="F F F"
Ca       0.00000000       0.00000000       0.00000000       0.00000000       0.00000000      -0.36159858
Ca       0.00000000       0.00000000       3.37777778       0.00000000       0.00000000       0.36159858
2
Properties=species:S:1:pos:R:3:forces:R:3 energy=-0.8949689728426797 pbc="F F F"
Ca       0.00000000       0.00000000       0.00000000       0.00000000       0.00000000      -0.24547364
Ca       0.00000000       0.00000000       3.43737374       0.00000000       0.00000000       0.24547364
2
Properties=species:S:1:pos:R:3:forces:R:3 energy=-0.9065132293709786 pbc="F F F"
Ca       0.00000000       0.00000000       0.00000000       0.00000000       0.00000000      -0.14428946
Ca       0.00000000       0.00000000       3.49696970       0.00000000       0.00000000       0.14428946
2
Properties=species:S:1:pos:R:3:forces:R:3 energy=-0.9124299695487624 pbc="F F F"
Ca       0.00000000       0.00000000       0.00000000       0.00000000       0.00000000      -0.05635884
Ca       0.00000000       0.00000000       3.55656566       0.00000000       0.00000000       0.05635884
2
Properties=species:S:1:pos:R:3:forces:R:3 energy=-0.9134676317598114 pbc="F F F"
Ca       0.00000000       0.00000000       0.00000000       0.00000000       0.00000000       0.01963708
Ca       0.00000000       0.00000000       3.61616162       0.00000000       0.00000000      -0.01963708
2
Properties=species:S:1:pos:R:3:forces:R:3 energy=-0.9103094368453268 pbc="F F F"
Ca       0.00000000       0.00000000       0.00000000       0.00000000       0.00000000       0.08453663
Ca       0.00000000       0.00000000       3.67575758       0.00000000       0.00000000      -0.08453663
2
Properties=species:S:1:pos:R:3:forces:R:3 energy=-0.9036056895999658 pbc="F F F"
Ca       0.00000000       0.00000000       0.00000000       0.00000000       0.00000000       0.13863744
Ca       0.00000000       0.00000000       3.73535354       0.00000000       0.00000000      -0.13863744
2
Properties=species:S:1:pos:R:3:forces:R:3 energy=-0.8940027157537234 pbc="F F F"
Ca       0.00000000       0.00000000       0.00000000       0.00000000       0.00000000       0.18177383
Ca       0.00000000       0.00000000       3.79494949       0.00000000       0.00000000      -0.18177383
2
Properties=species:S:1:pos:R:3:forces:R:3 energy=-0.8821639202767666 pbc="F F F"
Ca       0.00000000       0.00000000       0.00000000       0.00000000       0.00000000       0.21362133
Ca       0.00000000       0.00000000       3.85454545       0.00000000       0.00000000      -0.21362133
2
Properties=species:S:1:pos:R:3:forces:R:3 energy=-0.8687610795159003 pbc="F F F"
Ca       0.00000000       0.00000000       0.00000000       0.00000000       0.00000000       0.23445217
Ca       0.00000000       0.00000000       3.91414141       0.00000000       0.00000000      -0.23445217
2
Properties=species:S:1:pos:R:3:forces:R:3 energy=-0.854396681731244 pbc="F F F"
Ca       0.00000000       0.00000000       0.00000000       0.00000000       0.00000000       0.24647360
Ca       0.00000000       0.00000000       3.97373737       0.00000000       0.00000000      -0.24647360
2
Properties=species:S:1:pos:R:3:forces:R:3 energy=-0.839454316630607 pbc="F F F"
Ca       0.00000000       0.00000000       0.00000000       0.00000000       0.00000000       0.25498447
Ca       0.00000000       0.00000000       4.03333333       0.00000000       0.00000000      -0.25498447
2
Properties=species:S:1:pos:R:3:forces:R:3 energy=-0.8239315437285671 pbc="F F F"
Ca       0.00000000       0.00000000       0.00000000       0.00000000       0.00000000       0.26706290
Ca       0.00000000       0.00000000       4.09292929       0.00000000       0.00000000      -0.26706290
2
Properties=species:S:1:pos:R:3:forces:R:3 energy=-0.8074628544960814 pbc="F F F"
Ca       0.00000000       0.00000000       0.00000000       0.00000000       0.00000000       0.28694865
Ca       0.00000000       0.00000000       4.15252525       0.00000000       0.00000000      -0.28694865
2
Properties=species:S:1:pos:R:3:forces:R:3 energy=-0.789610750833704 pbc="F F F"
Ca       0.00000000       0.00000000       0.00000000       0.00000000       0.00000000       0.31268156
Ca       0.00000000       0.00000000       4.21212121       0.00000000       0.00000000      -0.31268156
2
Properties=species:S:1:pos:R:3:forces:R:3 energy=-0.770192595016626 pbc="F F F"
Ca       0.00000000       0.00000000       0.00000000       0.00000000       0.00000000       0.33850682
Ca       0.00000000       0.00000000       4.27171717       0.00000000       0.00000000      -0.33850682
2
Properties=species:S:1:pos:R:3:forces:R:3 energy=-0.7493588862602505 pbc="F F F"
Ca       0.00000000       0.00000000       0.00000000       0.00000000       0.00000000       0.35964188
Ca       0.00000000       0.00000000       4.33131313       0.00000000       0.00000000      -0.35964188
2
Properties=species:S:1:pos:R:3:forces:R:3 energy=-0.7274570384889821 pbc="F F F"
Ca       0.00000000       0.00000000       0.00000000       0.00000000       0.00000000       0.37427858
Ca       0.00000000       0.00000000       4.39090909       0.00000000       0.00000000      -0.37427858
2
Properties=species:S:1:pos:R:3:forces:R:3 energy=-0.7048687342923765 pbc="F F F"
Ca       0.00000000       0.00000000       0.00000000       0.00000000       0.00000000       0.38283914
Ca       0.00000000       0.00000000       4.45050505       0.00000000       0.00000000      -0.38283914
2
Properties=species:S:1:pos:R:3:forces:R:3 energy=-0.6819199352735823 pbc="F F F"
Ca       0.00000000       0.00000000       0.00000000       0.00000000       0.00000000       0.38665372
Ca       0.00000000       0.00000000       4.51010101       0.00000000       0.00000000      -0.38665372
2
Properties=species:S:1:pos:R:3:forces:R:3 energy=-0.6588493172300586 pbc="F F F"
Ca       0.00000000       0.00000000       0.00000000       0.00000000       0.00000000       0.38710946
Ca       0.00000000       0.00000000       4.56969697       0.00000000       0.00000000      -0.38710946
2
Properties=species:S:1:pos:R:3:forces:R:3 energy=-0.6358243726795237 pbc="F F F"
Ca       0.00000000       0.00000000       0.00000000       0.00000000       0.00000000       0.38527700
Ca       0.00000000       0.00000000       4.62929293       0.00000000       0.00000000      -0.38527700
2
Properties=species:S:1:pos:R:3:forces:R:3 energy=-0.6129602660961686 pbc="F F F"
Ca       0.00000000       0.00000000       0.00000000       0.00000000       0.00000000       0.38179815
Ca       0.00000000       0.00000000       4.68888889       0.00000000       0.00000000      -0.38179815
2
Properties=species:S:1:pos:R:3:forces:R:3 energy=-0.5903445393215483 pbc="F F F"
Ca       0.00000000       0.00000000       0.00000000       0.00000000       0.00000000       0.37694016
Ca       0.00000000       0.00000000       4.74848485       0.00000000       0.00000000      -0.37694016
2
Properties=species:S:1:pos:R:3:forces:R:3 energy=-0.5680587796180105 pbc="F F F"
Ca       0.00000000       0.00000000       0.00000000       0.00000000       0.00000000       0.37073919
Ca       0.00000000       0.00000000       4.80808081       0.00000000       0.00000000      -0.37073919
2
Properties=species:S:1:pos:R:3:forces:R:3 energy=-0.5461814745648532 pbc="F F F"
Ca       0.00000000       0.00000000       0.00000000       0.00000000       0.00000000       0.36322072
Ca       0.00000000       0.00000000       4.86767677       0.00000000       0.00000000      -0.36322072
2
Properties=species:S:1:pos:R:3:forces:R:3 energy=-0.5247860024879203 pbc="F F F"
Ca       0.00000000       0.00000000       0.00000000       0.00000000       0.00000000       0.35466266
Ca       0.00000000       0.00000000       4.92727273       0.00000000       0.00000000      -0.35466266
2
Properties=species:S:1:pos:R:3:forces:R:3 energy=-0.5039150582075583 pbc="F F F"
Ca       0.00000000       0.00000000       0.00000000       0.00000000       0.00000000       0.34578136
Ca       0.00000000       0.00000000       4.98686869       0.00000000       0.00000000      -0.34578136
2
Properties=species:S:1:pos:R:3:forces:R:3 energy=-0.4835574294541222 pbc="F F F"
Ca       0.00000000       0.00000000       0.00000000       0.00000000       0.00000000       0.33771425
Ca       0.00000000       0.00000000       5.04646465       0.00000000       0.00000000      -0.33771425
2
Properties=species:S:1:pos:R:3:forces:R:3 energy=-0.4636226423472779 pbc="F F F"
Ca       0.00000000       0.00000000       0.00000000       0.00000000       0.00000000       0.33169782
Ca       0.00000000       0.00000000       5.10606061       0.00000000       0.00000000      -0.33169782
2
Properties=species:S:1:pos:R:3:forces:R:3 energy=-0.4439647257744078 pbc="F F F"
Ca       0.00000000       0.00000000       0.00000000       0.00000000       0.00000000       0.32833847
Ca       0.00000000       0.00000000       5.16565657       0.00000000       0.00000000      -0.32833847
2
Properties=species:S:1:pos:R:3:forces:R:3 energy=-0.4244551489288883 pbc="F F F"
Ca       0.00000000       0.00000000       0.00000000       0.00000000       0.00000000       0.32640606
Ca       0.00000000       0.00000000       5.22525253       0.00000000       0.00000000      -0.32640606
2
Properties=species:S:1:pos:R:3:forces:R:3 energy=-0.4051161270981296 pbc="F F F"
Ca       0.00000000       0.00000000       0.00000000       0.00000000       0.00000000       0.32162023
Ca       0.00000000       0.00000000       5.28484848       0.00000000       0.00000000      -0.32162023
2
Properties=species:S:1:pos:R:3:forces:R:3 energy=-0.38630124695598145 pbc="F F F"
Ca       0.00000000       0.00000000       0.00000000       0.00000000       0.00000000       0.30796820
Ca       0.00000000       0.00000000       5.34444444       0.00000000       0.00000000      -0.30796820
2
Properties=species:S:1:pos:R:3:forces:R:3 energy=-0.3685586295534637 pbc="F F F"
Ca       0.00000000       0.00000000       0.00000000       0.00000000       0.00000000       0.28753006
Ca       0.00000000       0.00000000       5.40404040       0.00000000       0.00000000      -0.28753006
2
Properties=species:S:1:pos:R:3:forces:R:3 energy=-0.351758655524296 pbc="F F F"
Ca       0.00000000       0.00000000       0.00000000       0.00000000       0.00000000       0.28017938
Ca       0.00000000       0.00000000       5.46363636       0.00000000       0.00000000      -0.28017938
2
Properties=species:S:1:pos:R:3:forces:R:3 energy=-0.33478336082122834 pbc="F F F"
Ca       0.00000000       0.00000000       0.00000000       0.00000000       0.00000000       0.29011413
Ca       0.00000000       0.00000000       5.52323232       0.00000000       0.00000000      -0.29011413
2
Properties=species:S:1:pos:R:3:forces:R:3 energy=-0.3175836694396843 pbc="F F F"
Ca       0.00000000       0.00000000       0.00000000       0.00000000       0.00000000       0.28151113
Ca       0.00000000       0.00000000       5.58282828       0.00000000       0.00000000      -0.28151113
2
Properties=species:S:1:pos:R:3:forces:R:3 energy=-0.3017455943615696 pbc="F F F"
Ca       0.00000000       0.00000000       0.00000000       0.00000000       0.00000000       0.24867432
Ca       0.00000000       0.00000000       5.64242424       0.00000000       0.00000000      -0.24867432
2
Properties=species:S:1:pos:R:3:forces:R:3 energy=-0.2875739812752314 pbc="F F F"
Ca       0.00000000       0.00000000       0.00000000       0.00000000       0.00000000       0.23432803
Ca       0.00000000       0.00000000       5.70202020       0.00000000       0.00000000      -0.23432803
2
Properties=species:S:1:pos:R:3:forces:R:3 energy=-0.2727097613041459 pbc="F F F"
Ca       0.00000000       0.00000000       0.00000000       0.00000000       0.00000000       0.27151334
Ca       0.00000000       0.00000000       5.76161616       0.00000000       0.00000000      -0.27151334
2
Properties=species:S:1:pos:R:3:forces:R:3 energy=-0.25558438888003066 pbc="F F F"
Ca       0.00000000       0.00000000       0.00000000       0.00000000       0.00000000       0.28902924
Ca       0.00000000       0.00000000       5.82121212       0.00000000       0.00000000      -0.28902924
2
Properties=species:S:1:pos:R:3:forces:R:3 energy=-0.2404276754452658 pbc="F F F"
Ca       0.00000000       0.00000000       0.00000000       0.00000000       0.00000000       0.20612492
Ca       0.00000000       0.00000000       5.88080808       0.00000000       0.00000000      -0.20612492
2
Properties=species:S:1:pos:R:3:forces:R:3 energy=-0.2316738916648247 pbc="F F F"
Ca       0.00000000       0.00000000       0.00000000       0.00000000       0.00000000       0.08905097
Ca       0.00000000       0.00000000       5.94040404       0.00000000       0.00000000      -0.08905097
2
Properties=species:S:1:pos:R:3:forces:R:3 energy=-0.2284001592686199 pbc="F F F"
Ca       0.00000000       0.00000000       0.00000000       0.00000000       0.00000000       0.03754949
Ca       0.00000000       0.00000000       6.00000000       0.00000000       0.00000000      -0.03754949
