2
Properties=species:S:1:pos:R:3:forces:R:3 energy=9088.917143978648 pbc="F F F"
Cd       0.00000000       0.00000000       0.00000000       0.00000000       0.00000000 -135806.04687500
Cd       0.00000000       0.00000000       0.18000000       0.00000000       0.00000000  135806.04687500
2
Properties=species:S:1:pos:R:3:forces:R:3 energy=4255.171538509899 pbc="F F F"
Cd       0.00000000       0.00000000       0.00000000       0.00000000       0.00000000  -46981.23437500
Cd       0.00000000       0.00000000       0.23878788       0.00000000       0.00000000   46981.23437500
2
Properties=species:S:1:pos:R:3:forces:R:3 energy=2446.7779838255665 pbc="F F F"
Cd       0.00000000       0.00000000       0.00000000       0.00000000       0.00000000  -19303.92187500
Cd       0.00000000       0.00000000       0.29757576       0.00000000       0.00000000   19303.92187500
2
Properties=species:S:1:pos:R:3:forces:R:3 energy=1660.3799125396717 pbc="F F F"
Cd       0.00000000       0.00000000       0.00000000       0.00000000       0.00000000   -9017.36816406
Cd       0.00000000       0.00000000       0.35636364       0.00000000       0.00000000    9017.36816406
2
Properties=species:S:1:pos:R:3:forces:R:3 energy=1270.9671928194448 pbc="F F F"
Cd       0.00000000       0.00000000       0.00000000       0.00000000       0.00000000   -4834.28222656
Cd       0.00000000       0.00000000       0.41515152       0.00000000       0.00000000    4834.28222656
2
Properties=species:S:1:pos:R:3:forces:R:3 energy=1045.3420707681394 pbc="F F F"
Cd       0.00000000       0.00000000       0.00000000       0.00000000       0.00000000   -3095.24707031
Cd       0.00000000       0.00000000       0.47393939       0.00000000       0.00000000    3095.24707031
2
Properties=species:S:1:pos:R:3:forces:R:3 energy=887.1917412099738 pbc="F F F"
Cd       0.00000000       0.00000000       0.00000000       0.00000000       0.00000000   -2330.52929688
Cd       0.00000000       0.00000000       0.53272727       0.00000000       0.00000000    2330.52929688
2
Properties=species:S:1:pos:R:3:forces:R:3 energy=764.6819756356589 pbc="F F F"
Cd       0.00000000       0.00000000       0.00000000       0.00000000       0.00000000   -1966.44909668
Cd       0.00000000       0.00000000       0.59151515       0.00000000       0.00000000    1966.44909668
2
Properties=species:S:1:pos:R:3:forces:R:3 energy=652.8966363688892 pbc="F F F"
Cd       0.00000000       0.00000000       0.00000000       0.00000000       0.00000000   -1847.78503418
Cd       0.00000000       0.00000000       0.65030303       0.00000000       0.00000000    1847.78503418
2
Properties=species:S:1:pos:R:3:forces:R:3 energy=547.0537410004608 pbc="F F F"
Cd       0.00000000       0.00000000       0.00000000       0.00000000       0.00000000   -1748.61132812
Cd       0.00000000       0.00000000       0.70909091       0.00000000       0.00000000    1748.61132812
2
Properties=species:S:1:pos:R:3:forces:R:3 energy=447.44985937359957 pbc="F F F"
Cd       0.00000000       0.00000000       0.00000000       0.00000000       0.00000000   -1605.95312500
Cd       0.00000000       0.00000000       0.76787879       0.00000000       0.00000000    1605.95312500
2
Properties=species:S:1:pos:R:3:forces:R:3 energy=362.6641541176399 pbc="F F F"
Cd       0.00000000       0.00000000       0.00000000       0.00000000       0.00000000   -1289.21240234
Cd       0.00000000       0.00000000       0.82666667       0.00000000       0.00000000    1289.21240234
2
Properties=species:S:1:pos:R:3:forces:R:3 energy=292.6689152969869 pbc="F F F"
Cd       0.00000000       0.00000000       0.00000000       0.00000000       0.00000000   -1095.66577148
Cd       0.00000000       0.00000000       0.88545455       0.00000000       0.00000000    1095.66577148
2
Properties=species:S:1:pos:R:3:forces:R:3 energy=232.91500967104784 pbc="F F F"
Cd       0.00000000       0.00000000       0.00000000       0.00000000       0.00000000    -935.25769043
Cd       0.00000000       0.00000000       0.94424242       0.00000000       0.00000000     935.25769043
2
Properties=species:S:1:pos:R:3:forces:R:3 energy=183.5282917763598 pbc="F F F"
Cd       0.00000000       0.00000000       0.00000000       0.00000000       0.00000000    -740.32287598
Cd       0.00000000       0.00000000       1.00303030       0.00000000       0.00000000     740.32287598
2
Properties=species:S:1:pos:R:3:forces:R:3 energy=145.66640022608394 pbc="F F F"
Cd       0.00000000       0.00000000       0.00000000       0.00000000       0.00000000    -553.91534424
Cd       0.00000000       0.00000000       1.06181818       0.00000000       0.00000000     553.91534424
2
Properties=species:S:1:pos:R:3:forces:R:3 energy=117.39741219632157 pbc="F F F"
Cd       0.00000000       0.00000000       0.00000000       0.00000000       0.00000000    -416.90844727
Cd       0.00000000       0.00000000       1.12060606       0.00000000       0.00000000     416.90844727
2
Properties=species:S:1:pos:R:3:forces:R:3 energy=95.73657893227188 pbc="F F F"
Cd       0.00000000       0.00000000       0.00000000       0.00000000       0.00000000    -326.36642456
Cd       0.00000000       0.00000000       1.17939394       0.00000000       0.00000000     326.36642456
2
Properties=species:S:1:pos:R:3:forces:R:3 energy=78.37888499034729 pbc="F F F"
Cd       0.00000000       0.00000000       0.00000000       0.00000000       0.00000000    -268.97363281
Cd       0.00000000       0.00000000       1.23818182       0.00000000       0.00000000     268.97363281
2
Properties=species:S:1:pos:R:3:forces:R:3 energy=63.662442381037685 pbc="F F F"
Cd       0.00000000       0.00000000       0.00000000       0.00000000       0.00000000    -233.92126465
Cd       0.00000000       0.00000000       1.29696970       0.00000000       0.00000000     233.92126465
2
Properties=species:S:1:pos:R:3:forces:R:3 energy=50.87033613211897 pbc="F F F"
Cd       0.00000000       0.00000000       0.00000000       0.00000000       0.00000000    -199.37588501
Cd       0.00000000       0.00000000       1.35575758       0.00000000       0.00000000     199.37588501
2
Properties=species:S:1:pos:R:3:forces:R:3 energy=40.48689182992474 pbc="F F F"
Cd       0.00000000       0.00000000       0.00000000       0.00000000       0.00000000    -152.78910828
Cd       0.00000000       0.00000000       1.41454545       0.00000000       0.00000000     152.78910828
2
Properties=species:S:1:pos:R:3:forces:R:3 energy=32.75948898967757 pbc="F F F"
Cd       0.00000000       0.00000000       0.00000000       0.00000000       0.00000000    -113.04609680
Cd       0.00000000       0.00000000       1.47333333       0.00000000       0.00000000     113.04609680
2
Properties=species:S:1:pos:R:3:forces:R:3 energy=26.848656044618824 pbc="F F F"
Cd       0.00000000       0.00000000       0.00000000       0.00000000       0.00000000     -90.29794312
Cd       0.00000000       0.00000000       1.53212121       0.00000000       0.00000000      90.29794312
2
Properties=species:S:1:pos:R:3:forces:R:3 energy=21.97781816917676 pbc="F F F"
Cd       0.00000000       0.00000000       0.00000000       0.00000000       0.00000000     -76.15842438
Cd       0.00000000       0.00000000       1.59090909       0.00000000       0.00000000      76.15842438
2
Properties=species:S:1:pos:R:3:forces:R:3 energy=17.845839666455714 pbc="F F F"
Cd       0.00000000       0.00000000       0.00000000       0.00000000       0.00000000     -64.64356232
Cd       0.00000000       0.00000000       1.64969697       0.00000000       0.00000000      64.64356232
2
Properties=species:S:1:pos:R:3:forces:R:3 energy=14.356228079568265 pbc="F F F"
Cd       0.00000000       0.00000000       0.00000000       0.00000000       0.00000000     -54.24289322
Cd       0.00000000       0.00000000       1.70848485       0.00000000       0.00000000      54.24289322
2
Properties=species:S:1:pos:R:3:forces:R:3 energy=11.447344107424607 pbc="F F F"
Cd       0.00000000       0.00000000       0.00000000       0.00000000       0.00000000     -44.90740585
Cd       0.00000000       0.00000000       1.76727273       0.00000000       0.00000000      44.90740585
2
Properties=species:S:1:pos:R:3:forces:R:3 energy=9.05330917652917 pbc="F F F"
Cd       0.00000000       0.00000000       0.00000000       0.00000000       0.00000000     -36.73480606
Cd       0.00000000       0.00000000       1.82606061       0.00000000       0.00000000      36.73480606
2
Properties=species:S:1:pos:R:3:forces:R:3 energy=7.105891152879449 pbc="F F F"
Cd       0.00000000       0.00000000       0.00000000       0.00000000       0.00000000     -29.70065117
Cd       0.00000000       0.00000000       1.88484848       0.00000000       0.00000000      29.70065117
2
Properties=species:S:1:pos:R:3:forces:R:3 energy=5.540464107858832 pbc="F F F"
Cd       0.00000000       0.00000000       0.00000000       0.00000000       0.00000000     -23.72849083
Cd       0.00000000       0.00000000       1.94363636       0.00000000       0.00000000      23.72849083
2
Properties=species:S:1:pos:R:3:forces:R:3 energy=4.296070231039435 pbc="F F F"
Cd       0.00000000       0.00000000       0.00000000       0.00000000       0.00000000     -18.77159691
Cd       0.00000000       0.00000000       2.00242424       0.00000000       0.00000000      18.77159691
2
Properties=species:S:1:pos:R:3:forces:R:3 energy=3.3148299961206087 pbc="F F F"
Cd       0.00000000       0.00000000       0.00000000       0.00000000       0.00000000     -14.75948811
Cd       0.00000000       0.00000000       2.06121212       0.00000000       0.00000000      14.75948811
2
Properties=species:S:1:pos:R:3:forces:R:3 energy=2.5445673253789067 pbc="F F F"
Cd       0.00000000       0.00000000       0.00000000       0.00000000       0.00000000     -11.57086468
Cd       0.00000000       0.00000000       2.12000000       0.00000000       0.00000000      11.57086468
2
Properties=species:S:1:pos:R:3:forces:R:3 energy=1.9410235177470538 pbc="F F F"
Cd       0.00000000       0.00000000       0.00000000       0.00000000       0.00000000      -9.06389618
Cd       0.00000000       0.00000000       2.17878788       0.00000000       0.00000000       9.06389618
2
Properties=species:S:1:pos:R:3:forces:R:3 energy=1.468165243764392 pbc="F F F"
Cd       0.00000000       0.00000000       0.00000000       0.00000000       0.00000000      -7.10391951
Cd       0.00000000       0.00000000       2.23757576       0.00000000       0.00000000       7.10391951
2
Properties=species:S:1:pos:R:3:forces:R:3 energy=1.0973417063812532 pbc="F F F"
Cd       0.00000000       0.00000000       0.00000000       0.00000000       0.00000000      -5.57501698
Cd       0.00000000       0.00000000       2.29636364       0.00000000       0.00000000       5.57501698
2
Properties=species:S:1:pos:R:3:forces:R:3 energy=0.8060904156232639 pbc="F F F"
Cd       0.00000000       0.00000000       0.00000000       0.00000000       0.00000000      -4.38300228
Cd       0.00000000       0.00000000       2.35515152       0.00000000       0.00000000       4.38300228
2
Properties=species:S:1:pos:R:3:forces:R:3 energy=0.5768760790045777 pbc="F F F"
Cd       0.00000000       0.00000000       0.00000000       0.00000000       0.00000000      -3.45344234
Cd       0.00000000       0.00000000       2.41393939       0.00000000       0.00000000       3.45344234
2
Properties=species:S:1:pos:R:3:forces:R:3 energy=0.39605361344082524 pbc="F F F"
Cd       0.00000000       0.00000000       0.00000000       0.00000000       0.00000000      -2.72818542
Cd       0.00000000       0.00000000       2.47272727       0.00000000       0.00000000       2.72818542
2
Properties=species:S:1:pos:R:3:forces:R:3 energy=0.25299879522549323 pbc="F F F"
Cd       0.00000000       0.00000000       0.00000000       0.00000000       0.00000000      -2.16194367
Cd       0.00000000       0.00000000       2.53151515       0.00000000       0.00000000       2.16194367
2
Properties=species:S:1:pos:R:3:forces:R:3 energy=0.13943905897136208 pbc="F F F"
Cd       0.00000000       0.00000000       0.00000000       0.00000000       0.00000000      -1.71957409
Cd       0.00000000       0.00000000       2.59030303       0.00000000       0.00000000       1.71957409
2
Properties=species:S:1:pos:R:3:forces:R:3 energy=0.04892700537888274 pbc="F F F"
Cd       0.00000000       0.00000000       0.00000000       0.00000000       0.00000000      -1.37389600
Cd       0.00000000       0.00000000       2.64909091       0.00000000       0.00000000       1.37389600
2
Properties=species:S:1:pos:R:3:forces:R:3 energy=-0.023576757497331437 pbc="F F F"
Cd       0.00000000       0.00000000       0.00000000       0.00000000       0.00000000      -1.10380995
Cd       0.00000000       0.00000000       2.70787879       0.00000000       0.00000000       1.10380995
2
Properties=species:S:1:pos:R:3:forces:R:3 energy=-0.08200465553559837 pbc="F F F"
Cd       0.00000000       0.00000000       0.00000000       0.00000000       0.00000000      -0.89249557
Cd       0.00000000       0.00000000       2.76666667       0.00000000       0.00000000       0.89249557
2
Properties=species:S:1:pos:R:3:forces:R:3 energy=-0.12937772176058274 pbc="F F F"
Cd       0.00000000       0.00000000       0.00000000       0.00000000       0.00000000      -0.72535825
Cd       0.00000000       0.00000000       2.82545455       0.00000000       0.00000000       0.72535825
2
Properties=species:S:1:pos:R:3:forces:R:3 energy=-0.16788011418804757 pbc="F F F"
Cd       0.00000000       0.00000000       0.00000000       0.00000000       0.00000000      -0.58843559
Cd       0.00000000       0.00000000       2.88424242       0.00000000       0.00000000       0.58843559
2
Properties=species:S:1:pos:R:3:forces:R:3 energy=-0.19892114734506078 pbc="F F F"
Cd       0.00000000       0.00000000       0.00000000       0.00000000       0.00000000      -0.47003040
Cd       0.00000000       0.00000000       2.94303030       0.00000000       0.00000000       0.47003040
2
Properties=species:S:1:pos:R:3:forces:R:3 energy=-0.22341865688148244 pbc="F F F"
Cd       0.00000000       0.00000000       0.00000000       0.00000000       0.00000000      -0.36589950
Cd       0.00000000       0.00000000       3.00181818       0.00000000       0.00000000       0.36589950
2
Properties=species:S:1:pos:R:3:forces:R:3 energy=-0.24228085952767345 pbc="F F F"
Cd       0.00000000       0.00000000       0.00000000       0.00000000       0.00000000      -0.27899390
Cd       0.00000000       0.00000000       3.06060606       0.00000000       0.00000000       0.27899390
2
Properties=species:S:1:pos:R:3:forces:R:3 energy=-0.2566004464817599 pbc="F F F"
Cd       0.00000000       0.00000000       0.00000000       0.00000000       0.00000000      -0.21124896
Cd       0.00000000       0.00000000       3.11939394       0.00000000       0.00000000       0.21124896
2
Properties=species:S:1:pos:R:3:forces:R:3 energy=-0.2674425304842567 pbc="F F F"
Cd       0.00000000       0.00000000       0.00000000       0.00000000       0.00000000      -0.15999573
Cd       0.00000000       0.00000000       3.17818182       0.00000000       0.00000000       0.15999573
2
Properties=species:S:1:pos:R:3:forces:R:3 energy=-0.2756512384036127 pbc="F F F"
Cd       0.00000000       0.00000000       0.00000000       0.00000000       0.00000000      -0.12098154
Cd       0.00000000       0.00000000       3.23696970       0.00000000       0.00000000       0.12098154
2
Properties=species:S:1:pos:R:3:forces:R:3 energy=-0.28183989270010823 pbc="F F F"
Cd       0.00000000       0.00000000       0.00000000       0.00000000       0.00000000      -0.09082079
Cd       0.00000000       0.00000000       3.29575758       0.00000000       0.00000000       0.09082079
2
Properties=species:S:1:pos:R:3:forces:R:3 energy=-0.2864586476974686 pbc="F F F"
Cd       0.00000000       0.00000000       0.00000000       0.00000000       0.00000000      -0.06725976
Cd       0.00000000       0.00000000       3.35454545       0.00000000       0.00000000       0.06725976
2
Properties=species:S:1:pos:R:3:forces:R:3 energy=-0.28984736330417493 pbc="F F F"
Cd       0.00000000       0.00000000       0.00000000       0.00000000       0.00000000      -0.04878239
Cd       0.00000000       0.00000000       3.41333333       0.00000000       0.00000000       0.04878239
2
Properties=species:S:1:pos:R:3:forces:R:3 energy=-0.2922728689844231 pbc="F F F"
Cd       0.00000000       0.00000000       0.00000000       0.00000000       0.00000000      -0.03432727
Cd       0.00000000       0.00000000       3.47212121       0.00000000       0.00000000       0.03432727
2
Properties=species:S:1:pos:R:3:forces:R:3 energy=-0.2939474627496939 pbc="F F F"
Cd       0.00000000       0.00000000       0.00000000       0.00000000       0.00000000      -0.02314369
Cd       0.00000000       0.00000000       3.53090909       0.00000000       0.00000000       0.02314369
2
Properties=species:S:1:pos:R:3:forces:R:3 energy=-0.2950472332677116 pbc="F F F"
Cd       0.00000000       0.00000000       0.00000000       0.00000000       0.00000000      -0.01470034
Cd       0.00000000       0.00000000       3.58969697       0.00000000       0.00000000       0.01470034
2
Properties=species:S:1:pos:R:3:forces:R:3 energy=-0.2957219601972079 pbc="F F F"
Cd       0.00000000       0.00000000       0.00000000       0.00000000       0.00000000      -0.00860866
Cd       0.00000000       0.00000000       3.64848485       0.00000000       0.00000000       0.00860866
2
Properties=species:S:1:pos:R:3:forces:R:3 energy=-0.29609951236637855 pbc="F F F"
Cd       0.00000000       0.00000000       0.00000000       0.00000000       0.00000000      -0.00454872
Cd       0.00000000       0.00000000       3.70727273       0.00000000       0.00000000       0.00454872
2
Properties=species:S:1:pos:R:3:forces:R:3 energy=-0.296290694278098 pbc="F F F"
Cd       0.00000000       0.00000000       0.00000000       0.00000000       0.00000000      -0.00221643
Cd       0.00000000       0.00000000       3.76606061       0.00000000       0.00000000       0.00221643
2
Properties=species:S:1:pos:R:3:forces:R:3 energy=-0.29638781982818807 pbc="F F F"
Cd       0.00000000       0.00000000       0.00000000       0.00000000       0.00000000      -0.00129761
Cd       0.00000000       0.00000000       3.82484848       0.00000000       0.00000000       0.00129761
2
Properties=species:S:1:pos:R:3:forces:R:3 energy=-0.2964643769583355 pbc="F F F"
Cd       0.00000000       0.00000000       0.00000000       0.00000000       0.00000000      -0.00146340
Cd       0.00000000       0.00000000       3.88363636       0.00000000       0.00000000       0.00146340
2
Properties=species:S:1:pos:R:3:forces:R:3 energy=-0.29657464516359067 pbc="F F F"
Cd       0.00000000       0.00000000       0.00000000       0.00000000       0.00000000      -0.00238867
Cd       0.00000000       0.00000000       3.94242424       0.00000000       0.00000000       0.00238867
2
Properties=species:S:1:pos:R:3:forces:R:3 energy=-0.2967542981044623 pbc="F F F"
Cd       0.00000000       0.00000000       0.00000000       0.00000000       0.00000000      -0.00377720
Cd       0.00000000       0.00000000       4.00121212       0.00000000       0.00000000       0.00377720
2
Properties=species:S:1:pos:R:3:forces:R:3 energy=-0.2970231142203 pbc="F F F"
Cd       0.00000000       0.00000000       0.00000000       0.00000000       0.00000000      -0.00538791
Cd       0.00000000       0.00000000       4.06000000       0.00000000       0.00000000       0.00538791
2
Properties=species:S:1:pos:R:3:forces:R:3 energy=-0.2973886276198184 pbc="F F F"
Cd       0.00000000       0.00000000       0.00000000       0.00000000       0.00000000      -0.00705205
Cd       0.00000000       0.00000000       4.11878788       0.00000000       0.00000000       0.00705205
2
Properties=species:S:1:pos:R:3:forces:R:3 energy=-0.29785154038837197 pbc="F F F"
Cd       0.00000000       0.00000000       0.00000000       0.00000000       0.00000000      -0.00868131
Cd       0.00000000       0.00000000       4.17757576       0.00000000       0.00000000       0.00868131
2
Properties=species:S:1:pos:R:3:forces:R:3 energy=-0.29840850241548067 pbc="F F F"
Cd       0.00000000       0.00000000       0.00000000       0.00000000       0.00000000      -0.01026081
Cd       0.00000000       0.00000000       4.23636364       0.00000000       0.00000000       0.01026081
2
Properties=species:S:1:pos:R:3:forces:R:3 energy=-0.2990578773302332 pbc="F F F"
Cd       0.00000000       0.00000000       0.00000000       0.00000000       0.00000000      -0.01183332
Cd       0.00000000       0.00000000       4.29515152       0.00000000       0.00000000       0.01183332
2
Properties=species:S:1:pos:R:3:forces:R:3 energy=-0.29980104430000576 pbc="F F F"
Cd       0.00000000       0.00000000       0.00000000       0.00000000       0.00000000      -0.01347409
Cd       0.00000000       0.00000000       4.35393939       0.00000000       0.00000000       0.01347409
2
Properties=species:S:1:pos:R:3:forces:R:3 energy=-0.3006449498987638 pbc="F F F"
Cd       0.00000000       0.00000000       0.00000000       0.00000000       0.00000000      -0.01526391
Cd       0.00000000       0.00000000       4.41272727       0.00000000       0.00000000       0.01526391
2
Properties=species:S:1:pos:R:3:forces:R:3 energy=-0.3015999185743159 pbc="F F F"
Cd       0.00000000       0.00000000       0.00000000       0.00000000       0.00000000      -0.01726131
Cd       0.00000000       0.00000000       4.47151515       0.00000000       0.00000000       0.01726131
2
Properties=species:S:1:pos:R:3:forces:R:3 energy=-0.3026788937510137 pbc="F F F"
Cd       0.00000000       0.00000000       0.00000000       0.00000000       0.00000000      -0.01948439
Cd       0.00000000       0.00000000       4.53030303       0.00000000       0.00000000       0.01948439
2
Properties=species:S:1:pos:R:3:forces:R:3 energy=-0.3038945109904845 pbc="F F F"
Cd       0.00000000       0.00000000       0.00000000       0.00000000       0.00000000      -0.02189519
Cd       0.00000000       0.00000000       4.58909091       0.00000000       0.00000000       0.02189519
2
Properties=species:S:1:pos:R:3:forces:R:3 energy=-0.3052551223194119 pbc="F F F"
Cd       0.00000000       0.00000000       0.00000000       0.00000000       0.00000000      -0.02440084
Cd       0.00000000       0.00000000       4.64787879       0.00000000       0.00000000       0.02440084
2
Properties=species:S:1:pos:R:3:forces:R:3 energy=-0.3067627398692913 pbc="F F F"
Cd       0.00000000       0.00000000       0.00000000       0.00000000       0.00000000      -0.02686279
Cd       0.00000000       0.00000000       4.70666667       0.00000000       0.00000000       0.02686279
2
Properties=species:S:1:pos:R:3:forces:R:3 energy=-0.30840961190114846 pbc="F F F"
Cd       0.00000000       0.00000000       0.00000000       0.00000000       0.00000000      -0.02912458
Cd       0.00000000       0.00000000       4.76545455       0.00000000       0.00000000       0.02912458
2
Properties=species:S:1:pos:R:3:forces:R:3 energy=-0.3101803374785058 pbc="F F F"
Cd       0.00000000       0.00000000       0.00000000       0.00000000       0.00000000      -0.03104934
Cd       0.00000000       0.00000000       4.82424242       0.00000000       0.00000000       0.03104934
2
Properties=species:S:1:pos:R:3:forces:R:3 energy=-0.31205205132497316 pbc="F F F"
Cd       0.00000000       0.00000000       0.00000000       0.00000000       0.00000000      -0.03256604
Cd       0.00000000       0.00000000       4.88303030       0.00000000       0.00000000       0.03256604
2
Properties=species:S:1:pos:R:3:forces:R:3 energy=-0.31400194292897965 pbc="F F F"
Cd       0.00000000       0.00000000       0.00000000       0.00000000       0.00000000      -0.03371193
Cd       0.00000000       0.00000000       4.94181818       0.00000000       0.00000000       0.03371193
2
Properties=species:S:1:pos:R:3:forces:R:3 energy=-0.3160117950003084 pbc="F F F"
Cd       0.00000000       0.00000000       0.00000000       0.00000000       0.00000000      -0.03464626
Cd       0.00000000       0.00000000       5.00060606       0.00000000       0.00000000       0.03464626
2
Properties=species:S:1:pos:R:3:forces:R:3 energy=-0.31807638672507454 pbc="F F F"
Cd       0.00000000       0.00000000       0.00000000       0.00000000       0.00000000      -0.03562138
Cd       0.00000000       0.00000000       5.05939394       0.00000000       0.00000000       0.03562138
2
Properties=species:S:1:pos:R:3:forces:R:3 energy=-0.32020574736286117 pbc="F F F"
Cd       0.00000000       0.00000000       0.00000000       0.00000000       0.00000000      -0.03688434
Cd       0.00000000       0.00000000       5.11818182       0.00000000       0.00000000       0.03688434
2
Properties=species:S:1:pos:R:3:forces:R:3 energy=-0.322420399838479 pbc="F F F"
Cd       0.00000000       0.00000000       0.00000000       0.00000000       0.00000000      -0.03851828
Cd       0.00000000       0.00000000       5.17696970       0.00000000       0.00000000       0.03851828
2
Properties=species:S:1:pos:R:3:forces:R:3 energy=-0.3247363219485259 pbc="F F F"
Cd       0.00000000       0.00000000       0.00000000       0.00000000       0.00000000      -0.04024244
Cd       0.00000000       0.00000000       5.23575758       0.00000000       0.00000000       0.04024244
2
Properties=species:S:1:pos:R:3:forces:R:3 energy=-0.3271386549613732 pbc="F F F"
Cd       0.00000000       0.00000000       0.00000000       0.00000000       0.00000000      -0.04129168
Cd       0.00000000       0.00000000       5.29454545       0.00000000       0.00000000       0.04129168
2
Properties=species:S:1:pos:R:3:forces:R:3 energy=-0.3295587313623132 pbc="F F F"
Cd       0.00000000       0.00000000       0.00000000       0.00000000       0.00000000      -0.04070841
Cd       0.00000000       0.00000000       5.35333333       0.00000000       0.00000000       0.04070841
2
Properties=species:S:1:pos:R:3:forces:R:3 energy=-0.33189521420359924 pbc="F F F"
Cd       0.00000000       0.00000000       0.00000000       0.00000000       0.00000000      -0.03868362
Cd       0.00000000       0.00000000       5.41212121       0.00000000       0.00000000       0.03868362
2
Properties=species:S:1:pos:R:3:forces:R:3 energy=-0.3341269970971694 pbc="F F F"
Cd       0.00000000       0.00000000       0.00000000       0.00000000       0.00000000      -0.03761376
Cd       0.00000000       0.00000000       5.47090909       0.00000000       0.00000000       0.03761376
2
Properties=species:S:1:pos:R:3:forces:R:3 energy=-0.3363444568473973 pbc="F F F"
Cd       0.00000000       0.00000000       0.00000000       0.00000000       0.00000000      -0.03764776
Cd       0.00000000       0.00000000       5.52969697       0.00000000       0.00000000       0.03764776
2
Properties=species:S:1:pos:R:3:forces:R:3 energy=-0.3384802517408184 pbc="F F F"
Cd       0.00000000       0.00000000       0.00000000       0.00000000       0.00000000      -0.03418922
Cd       0.00000000       0.00000000       5.58848485       0.00000000       0.00000000       0.03418922
2
Properties=species:S:1:pos:R:3:forces:R:3 energy=-0.3402923820316899 pbc="F F F"
Cd       0.00000000       0.00000000       0.00000000       0.00000000       0.00000000      -0.02725429
Cd       0.00000000       0.00000000       5.64727273       0.00000000       0.00000000       0.02725429
2
Properties=species:S:1:pos:R:3:forces:R:3 energy=-0.3417217391990645 pbc="F F F"
Cd       0.00000000       0.00000000       0.00000000       0.00000000       0.00000000      -0.02223648
Cd       0.00000000       0.00000000       5.70606061       0.00000000       0.00000000       0.02223648
2
Properties=species:S:1:pos:R:3:forces:R:3 energy=-0.34302572826502087 pbc="F F F"
Cd       0.00000000       0.00000000       0.00000000       0.00000000       0.00000000      -0.02262094
Cd       0.00000000       0.00000000       5.76484848       0.00000000       0.00000000       0.02262094
2
Properties=species:S:1:pos:R:3:forces:R:3 energy=-0.3443314664177136 pbc="F F F"
Cd       0.00000000       0.00000000       0.00000000       0.00000000       0.00000000      -0.02047199
Cd       0.00000000       0.00000000       5.82363636       0.00000000       0.00000000       0.02047199
2
Properties=species:S:1:pos:R:3:forces:R:3 energy=-0.34523699467569396 pbc="F F F"
Cd       0.00000000       0.00000000       0.00000000       0.00000000       0.00000000      -0.00927999
Cd       0.00000000       0.00000000       5.88242424       0.00000000       0.00000000       0.00927999
2
Properties=species:S:1:pos:R:3:forces:R:3 energy=-0.34539932680986213 pbc="F F F"
Cd       0.00000000       0.00000000       0.00000000       0.00000000       0.00000000       0.00318411
Cd       0.00000000       0.00000000       5.94121212       0.00000000       0.00000000      -0.00318411
2
Properties=species:S:1:pos:R:3:forces:R:3 energy=-0.3450200312534185 pbc="F F F"
Cd       0.00000000       0.00000000       0.00000000       0.00000000       0.00000000       0.00797041
Cd       0.00000000       0.00000000       6.00000000       0.00000000       0.00000000      -0.00797041
