2
Properties=species:S:1:pos:R:3:forces:R:3 energy=40522.03237835365 pbc="F F F"
Cd       0.00000000       0.00000000       0.00000000       0.00000000       0.00000000 -950929.06250000
Cd       0.00000000       0.00000000       0.10000000       0.00000000       0.00000000  950929.06250000
2
Properties=species:S:1:pos:R:3:forces:R:3 energy=12534.077300228648 pbc="F F F"
Cd       0.00000000       0.00000000       0.00000000       0.00000000       0.00000000 -208037.23437500
Cd       0.00000000       0.00000000       0.15959596       0.00000000       0.00000000  208037.23437500
2
Properties=species:S:1:pos:R:3:forces:R:3 energy=5344.566069759899 pbc="F F F"
Cd       0.00000000       0.00000000       0.00000000       0.00000000       0.00000000  -65403.14453125
Cd       0.00000000       0.00000000       0.21919192       0.00000000       0.00000000   65403.14453125
2
Properties=species:S:1:pos:R:3:forces:R:3 energy=2862.5545951536915 pbc="F F F"
Cd       0.00000000       0.00000000       0.00000000       0.00000000       0.00000000  -25271.52929688
Cd       0.00000000       0.00000000       0.27878788       0.00000000       0.00000000   25271.52929688
2
Properties=species:S:1:pos:R:3:forces:R:3 energy=1841.5027152740467 pbc="F F F"
Cd       0.00000000       0.00000000       0.00000000       0.00000000       0.00000000  -11231.15332031
Cd       0.00000000       0.00000000       0.33838384       0.00000000       0.00000000   11231.15332031
2
Properties=species:S:1:pos:R:3:forces:R:3 energy=1361.1379691866323 pbc="F F F"
Cd       0.00000000       0.00000000       0.00000000       0.00000000       0.00000000   -5704.98486328
Cd       0.00000000       0.00000000       0.39797980       0.00000000       0.00000000    5704.98486328
2
Properties=species:S:1:pos:R:3:forces:R:3 energy=1098.6648246680536 pbc="F F F"
Cd       0.00000000       0.00000000       0.00000000       0.00000000       0.00000000   -3435.93798828
Cd       0.00000000       0.00000000       0.45757576       0.00000000       0.00000000    3435.93798828
2
Properties=species:S:1:pos:R:3:forces:R:3 energy=925.2175590683962 pbc="F F F"
Cd       0.00000000       0.00000000       0.00000000       0.00000000       0.00000000   -2532.27685547
Cd       0.00000000       0.00000000       0.51717172       0.00000000       0.00000000    2532.27685547
2
Properties=species:S:1:pos:R:3:forces:R:3 energy=794.0037529667376 pbc="F F F"
Cd       0.00000000       0.00000000       0.00000000       0.00000000       0.00000000   -2011.31982422
Cd       0.00000000       0.00000000       0.57676768       0.00000000       0.00000000    2011.31982422
2
Properties=species:S:1:pos:R:3:forces:R:3 energy=678.8127130068707 pbc="F F F"
Cd       0.00000000       0.00000000       0.00000000       0.00000000       0.00000000   -1870.75561523
Cd       0.00000000       0.00000000       0.63636364       0.00000000       0.00000000    1870.75561523
2
Properties=species:S:1:pos:R:3:forces:R:3 energy=570.1883234819782 pbc="F F F"
Cd       0.00000000       0.00000000       0.00000000       0.00000000       0.00000000   -1774.09240723
Cd       0.00000000       0.00000000       0.69595960       0.00000000       0.00000000    1774.09240723
2
Properties=species:S:1:pos:R:3:forces:R:3 energy=467.5943295377582 pbc="F F F"
Cd       0.00000000       0.00000000       0.00000000       0.00000000       0.00000000   -1661.86059570
Cd       0.00000000       0.00000000       0.75555556       0.00000000       0.00000000    1661.86059570
2
Properties=species:S:1:pos:R:3:forces:R:3 energy=377.74987792490094 pbc="F F F"
Cd       0.00000000       0.00000000       0.00000000       0.00000000       0.00000000   -1335.48767090
Cd       0.00000000       0.00000000       0.81515152       0.00000000       0.00000000    1335.48767090
2
Properties=species:S:1:pos:R:3:forces:R:3 energy=304.56384318680347 pbc="F F F"
Cd       0.00000000       0.00000000       0.00000000       0.00000000       0.00000000   -1126.50000000
Cd       0.00000000       0.00000000       0.87474747       0.00000000       0.00000000    1126.50000000
2
Properties=species:S:1:pos:R:3:forces:R:3 energy=242.31611734192435 pbc="F F F"
Cd       0.00000000       0.00000000       0.00000000       0.00000000       0.00000000    -963.91131592
Cd       0.00000000       0.00000000       0.93434343       0.00000000       0.00000000     963.91131592
2
Properties=species:S:1:pos:R:3:forces:R:3 energy=190.4004229751284 pbc="F F F"
Cd       0.00000000       0.00000000       0.00000000       0.00000000       0.00000000    -771.58642578
Cd       0.00000000       0.00000000       0.99393939       0.00000000       0.00000000     771.58642578
2
Properties=species:S:1:pos:R:3:forces:R:3 energy=150.3518858853618 pbc="F F F"
Cd       0.00000000       0.00000000       0.00000000       0.00000000       0.00000000    -577.66009521
Cd       0.00000000       0.00000000       1.05353535       0.00000000       0.00000000     577.66009521
2
Properties=species:S:1:pos:R:3:forces:R:3 energy=120.56739488473028 pbc="F F F"
Cd       0.00000000       0.00000000       0.00000000       0.00000000       0.00000000    -431.38619995
Cd       0.00000000       0.00000000       1.11313131       0.00000000       0.00000000     431.38619995
2
Properties=species:S:1:pos:R:3:forces:R:3 energy=97.94023010706877 pbc="F F F"
Cd       0.00000000       0.00000000       0.00000000       0.00000000       0.00000000    -334.79931641
Cd       0.00000000       0.00000000       1.17272727       0.00000000       0.00000000     334.79931641
2
Properties=species:S:1:pos:R:3:forces:R:3 energy=79.96764507805203 pbc="F F F"
Cd       0.00000000       0.00000000       0.00000000       0.00000000       0.00000000    -273.44635010
Cd       0.00000000       0.00000000       1.23232323       0.00000000       0.00000000     273.44635010
2
Properties=species:S:1:pos:R:3:forces:R:3 energy=64.8505524189858 pbc="F F F"
Cd       0.00000000       0.00000000       0.00000000       0.00000000       0.00000000    -236.54644775
Cd       0.00000000       0.00000000       1.29191919       0.00000000       0.00000000     236.54644775
2
Properties=species:S:1:pos:R:3:forces:R:3 energy=51.72247050091967 pbc="F F F"
Cd       0.00000000       0.00000000       0.00000000       0.00000000       0.00000000    -202.31939697
Cd       0.00000000       0.00000000       1.35151515       0.00000000       0.00000000     202.31939697
2
Properties=species:S:1:pos:R:3:forces:R:3 energy=41.016379097663226 pbc="F F F"
Cd       0.00000000       0.00000000       0.00000000       0.00000000       0.00000000    -155.57252502
Cd       0.00000000       0.00000000       1.41111111       0.00000000       0.00000000     155.57252502
2
Properties=species:S:1:pos:R:3:forces:R:3 energy=33.05820616850683 pbc="F F F"
Cd       0.00000000       0.00000000       0.00000000       0.00000000       0.00000000    -114.42438507
Cd       0.00000000       0.00000000       1.47070707       0.00000000       0.00000000     114.42438507
2
Properties=species:S:1:pos:R:3:forces:R:3 energy=27.013294288305406 pbc="F F F"
Cd       0.00000000       0.00000000       0.00000000       0.00000000       0.00000000     -90.82511902
Cd       0.00000000       0.00000000       1.53030303       0.00000000       0.00000000      90.82511902
2
Properties=species:S:1:pos:R:3:forces:R:3 energy=22.05484816416002 pbc="F F F"
Cd       0.00000000       0.00000000       0.00000000       0.00000000       0.00000000     -76.37049103
Cd       0.00000000       0.00000000       1.58989899       0.00000000       0.00000000      76.37049103
2
Properties=species:S:1:pos:R:3:forces:R:3 energy=17.858904953905324 pbc="F F F"
Cd       0.00000000       0.00000000       0.00000000       0.00000000       0.00000000     -64.68103027
Cd       0.00000000       0.00000000       1.64949495       0.00000000       0.00000000      64.68103027
2
Properties=species:S:1:pos:R:3:forces:R:3 energy=14.32338465134448 pbc="F F F"
Cd       0.00000000       0.00000000       0.00000000       0.00000000       0.00000000     -54.14099121
Cd       0.00000000       0.00000000       1.70909091       0.00000000       0.00000000      54.14099121
2
Properties=species:S:1:pos:R:3:forces:R:3 energy=11.383984343021954 pbc="F F F"
Cd       0.00000000       0.00000000       0.00000000       0.00000000       0.00000000     -44.69696045
Cd       0.00000000       0.00000000       1.76868687       0.00000000       0.00000000      44.69696045
2
Properties=species:S:1:pos:R:3:forces:R:3 energy=8.972000706963025 pbc="F F F"
Cd       0.00000000       0.00000000       0.00000000       0.00000000       0.00000000     -36.44874954
Cd       0.00000000       0.00000000       1.82828283       0.00000000       0.00000000      36.44874954
2
Properties=species:S:1:pos:R:3:forces:R:3 energy=7.0163911087799855 pbc="F F F"
Cd       0.00000000       0.00000000       0.00000000       0.00000000       0.00000000     -29.36733437
Cd       0.00000000       0.00000000       1.88787879       0.00000000       0.00000000      29.36733437
2
Properties=species:S:1:pos:R:3:forces:R:3 energy=5.450063936092842 pbc="F F F"
Cd       0.00000000       0.00000000       0.00000000       0.00000000       0.00000000     -23.37433815
Cd       0.00000000       0.00000000       1.94747475       0.00000000       0.00000000      23.37433815
2
Properties=species:S:1:pos:R:3:forces:R:3 energy=4.209666206421122 pbc="F F F"
Cd       0.00000000       0.00000000       0.00000000       0.00000000       0.00000000     -18.42141914
Cd       0.00000000       0.00000000       2.00707071       0.00000000       0.00000000      18.42141914
2
Properties=species:S:1:pos:R:3:forces:R:3 energy=3.2352211971181366 pbc="F F F"
Cd       0.00000000       0.00000000       0.00000000       0.00000000       0.00000000     -14.43111134
Cd       0.00000000       0.00000000       2.06666667       0.00000000       0.00000000      14.43111134
2
Properties=species:S:1:pos:R:3:forces:R:3 energy=2.4730365968352226 pbc="F F F"
Cd       0.00000000       0.00000000       0.00000000       0.00000000       0.00000000     -11.27383804
Cd       0.00000000       0.00000000       2.12626263       0.00000000       0.00000000      11.27383804
2
Properties=species:S:1:pos:R:3:forces:R:3 energy=1.8778678255055052 pbc="F F F"
Cd       0.00000000       0.00000000       0.00000000       0.00000000       0.00000000      -8.80171967
Cd       0.00000000       0.00000000       2.18585859       0.00000000       0.00000000       8.80171967
2
Properties=species:S:1:pos:R:3:forces:R:3 energy=1.413094684831882 pbc="F F F"
Cd       0.00000000       0.00000000       0.00000000       0.00000000       0.00000000      -6.87628031
Cd       0.00000000       0.00000000       2.24545455       0.00000000       0.00000000       6.87628031
2
Properties=species:S:1:pos:R:3:forces:R:3 energy=1.0497669253571353 pbc="F F F"
Cd       0.00000000       0.00000000       0.00000000       0.00000000       0.00000000      -5.37966585
Cd       0.00000000       0.00000000       2.30505051       0.00000000       0.00000000       5.37966585
2
Properties=species:S:1:pos:R:3:forces:R:3 energy=0.7652679319906067 pbc="F F F"
Cd       0.00000000       0.00000000       0.00000000       0.00000000       0.00000000      -4.21679592
Cd       0.00000000       0.00000000       2.36464646       0.00000000       0.00000000       4.21679592
2
Properties=species:S:1:pos:R:3:forces:R:3 energy=0.5420230014726065 pbc="F F F"
Cd       0.00000000       0.00000000       0.00000000       0.00000000       0.00000000      -3.31299806
Cd       0.00000000       0.00000000       2.42424242       0.00000000       0.00000000       3.31299806
2
Properties=species:S:1:pos:R:3:forces:R:3 energy=0.36640123735171337 pbc="F F F"
Cd       0.00000000       0.00000000       0.00000000       0.00000000       0.00000000      -2.61017156
Cd       0.00000000       0.00000000       2.48383838       0.00000000       0.00000000       2.61017156
2
Properties=species:S:1:pos:R:3:forces:R:3 energy=0.2278219479502004 pbc="F F F"
Cd       0.00000000       0.00000000       0.00000000       0.00000000       0.00000000      -2.06322336
Cd       0.00000000       0.00000000       2.54343434       0.00000000       0.00000000       2.06322336
2
Properties=species:S:1:pos:R:3:forces:R:3 energy=0.11808174206595795 pbc="F F F"
Cd       0.00000000       0.00000000       0.00000000       0.00000000       0.00000000      -1.63734472
Cd       0.00000000       0.00000000       2.60303030       0.00000000       0.00000000       1.63734472
2
Properties=species:S:1:pos:R:3:forces:R:3 energy=0.030796744090300657 pbc="F F F"
Cd       0.00000000       0.00000000       0.00000000       0.00000000       0.00000000      -1.30568016
Cd       0.00000000       0.00000000       2.66262626       0.00000000       0.00000000       1.30568016
2
Properties=species:S:1:pos:R:3:forces:R:3 energy=-0.03900069553375164 pbc="F F F"
Cd       0.00000000       0.00000000       0.00000000       0.00000000       0.00000000      -1.04741204
Cd       0.00000000       0.00000000       2.72222222       0.00000000       0.00000000       1.04741204
2
Properties=species:S:1:pos:R:3:forces:R:3 energy=-0.09517016604020898 pbc="F F F"
Cd       0.00000000       0.00000000       0.00000000       0.00000000       0.00000000      -0.84575772
Cd       0.00000000       0.00000000       2.78181818       0.00000000       0.00000000       0.84575772
2
Properties=species:S:1:pos:R:3:forces:R:3 energy=-0.14063592019267893 pbc="F F F"
Cd       0.00000000       0.00000000       0.00000000       0.00000000       0.00000000      -0.68576717
Cd       0.00000000       0.00000000       2.84141414       0.00000000       0.00000000       0.68576717
2
Properties=species:S:1:pos:R:3:forces:R:3 energy=-0.1774493332594527 pbc="F F F"
Cd       0.00000000       0.00000000       0.00000000       0.00000000       0.00000000      -0.55314261
Cd       0.00000000       0.00000000       2.90101010       0.00000000       0.00000000       0.55314261
2
Properties=species:S:1:pos:R:3:forces:R:3 energy=-0.20689310105874464 pbc="F F F"
Cd       0.00000000       0.00000000       0.00000000       0.00000000       0.00000000      -0.43734762
Cd       0.00000000       0.00000000       2.96060606       0.00000000       0.00000000       0.43734762
2
Properties=species:S:1:pos:R:3:forces:R:3 energy=-0.22987412795105192 pbc="F F F"
Cd       0.00000000       0.00000000       0.00000000       0.00000000       0.00000000      -0.33668604
Cd       0.00000000       0.00000000       3.02020202       0.00000000       0.00000000       0.33668604
2
Properties=species:S:1:pos:R:3:forces:R:3 energy=-0.2474002703008792 pbc="F F F"
Cd       0.00000000       0.00000000       0.00000000       0.00000000       0.00000000      -0.25482479
Cd       0.00000000       0.00000000       3.07979798       0.00000000       0.00000000       0.25482479
2
Properties=species:S:1:pos:R:3:forces:R:3 energy=-0.26063180047753765 pbc="F F F"
Cd       0.00000000       0.00000000       0.00000000       0.00000000       0.00000000      -0.19217771
Cd       0.00000000       0.00000000       3.13939394       0.00000000       0.00000000       0.19217771
2
Properties=species:S:1:pos:R:3:forces:R:3 energy=-0.27061337769683075 pbc="F F F"
Cd       0.00000000       0.00000000       0.00000000       0.00000000       0.00000000      -0.14498915
Cd       0.00000000       0.00000000       3.19898990       0.00000000       0.00000000       0.14498915
2
Properties=species:S:1:pos:R:3:forces:R:3 energy=-0.27813518922839836 pbc="F F F"
Cd       0.00000000       0.00000000       0.00000000       0.00000000       0.00000000      -0.10900222
Cd       0.00000000       0.00000000       3.25858586       0.00000000       0.00000000       0.10900222
2
Properties=species:S:1:pos:R:3:forces:R:3 energy=-0.28376642777683325 pbc="F F F"
Cd       0.00000000       0.00000000       0.00000000       0.00000000       0.00000000      -0.08114966
Cd       0.00000000       0.00000000       3.31818182       0.00000000       0.00000000       0.08114966
2
Properties=species:S:1:pos:R:3:forces:R:3 energy=-0.2879285728482414 pbc="F F F"
Cd       0.00000000       0.00000000       0.00000000       0.00000000       0.00000000      -0.05941735
Cd       0.00000000       0.00000000       3.37777778       0.00000000       0.00000000       0.05941735
2
Properties=species:S:1:pos:R:3:forces:R:3 energy=-0.2909425618256498 pbc="F F F"
Cd       0.00000000       0.00000000       0.00000000       0.00000000       0.00000000      -0.04243389
Cd       0.00000000       0.00000000       3.43737374       0.00000000       0.00000000       0.04243389
2
Properties=species:S:1:pos:R:3:forces:R:3 energy=-0.2930613569976694 pbc="F F F"
Cd       0.00000000       0.00000000       0.00000000       0.00000000       0.00000000      -0.02923581
Cd       0.00000000       0.00000000       3.49696970       0.00000000       0.00000000       0.02923581
2
Properties=species:S:1:pos:R:3:forces:R:3 energy=-0.2944890285988978 pbc="F F F"
Cd       0.00000000       0.00000000       0.00000000       0.00000000       0.00000000      -0.01914681
Cd       0.00000000       0.00000000       3.55656566       0.00000000       0.00000000       0.01914681
2
Properties=species:S:1:pos:R:3:forces:R:3 energy=-0.29539557353597967 pbc="F F F"
Cd       0.00000000       0.00000000       0.00000000       0.00000000       0.00000000      -0.01168700
Cd       0.00000000       0.00000000       3.61616162       0.00000000       0.00000000       0.01168700
2
Properties=species:S:1:pos:R:3:forces:R:3 energy=-0.29592665157959497 pbc="F F F"
Cd       0.00000000       0.00000000       0.00000000       0.00000000       0.00000000      -0.00649098
Cd       0.00000000       0.00000000       3.67575758       0.00000000       0.00000000       0.00649098
2
Properties=species:S:1:pos:R:3:forces:R:3 energy=-0.29620777434268253 pbc="F F F"
Cd       0.00000000       0.00000000       0.00000000       0.00000000       0.00000000      -0.00323797
Cd       0.00000000       0.00000000       3.73535354       0.00000000       0.00000000       0.00323797
2
Properties=species:S:1:pos:R:3:forces:R:3 energy=-0.2963449922557807 pbc="F F F"
Cd       0.00000000       0.00000000       0.00000000       0.00000000       0.00000000      -0.00160870
Cd       0.00000000       0.00000000       3.79494949       0.00000000       0.00000000       0.00160870
2
Properties=species:S:1:pos:R:3:forces:R:3 energy=-0.29642526545016046 pbc="F F F"
Cd       0.00000000       0.00000000       0.00000000       0.00000000       0.00000000      -0.00126648
Cd       0.00000000       0.00000000       3.85454545       0.00000000       0.00000000       0.00126648
2
Properties=species:S:1:pos:R:3:forces:R:3 energy=-0.29651467151271066 pbc="F F F"
Cd       0.00000000       0.00000000       0.00000000       0.00000000       0.00000000      -0.00186833
Cd       0.00000000       0.00000000       3.91414141       0.00000000       0.00000000       0.00186833
2
Properties=species:S:1:pos:R:3:forces:R:3 energy=-0.2966601245171697 pbc="F F F"
Cd       0.00000000       0.00000000       0.00000000       0.00000000       0.00000000      -0.00308743
Cd       0.00000000       0.00000000       3.97373737       0.00000000       0.00000000       0.00308743
2
Properties=species:S:1:pos:R:3:forces:R:3 energy=-0.2968894111620928 pbc="F F F"
Cd       0.00000000       0.00000000       0.00000000       0.00000000       0.00000000      -0.00464235
Cd       0.00000000       0.00000000       4.03333333       0.00000000       0.00000000       0.00464235
2
Properties=species:S:1:pos:R:3:forces:R:3 energy=-0.297215803919148 pbc="F F F"
Cd       0.00000000       0.00000000       0.00000000       0.00000000       0.00000000      -0.00632098
Cd       0.00000000       0.00000000       4.09292929       0.00000000       0.00000000       0.00632098
2
Properties=species:S:1:pos:R:3:forces:R:3 energy=-0.2976426204344687 pbc="F F F"
Cd       0.00000000       0.00000000       0.00000000       0.00000000       0.00000000      -0.00799377
Cd       0.00000000       0.00000000       4.15252525       0.00000000       0.00000000       0.00799377
2
Properties=species:S:1:pos:R:3:forces:R:3 energy=-0.2981674622720212 pbc="F F F"
Cd       0.00000000       0.00000000       0.00000000       0.00000000       0.00000000      -0.00961396
Cd       0.00000000       0.00000000       4.21212121       0.00000000       0.00000000       0.00961396
2
Properties=species:S:1:pos:R:3:forces:R:3 energy=-0.2987879136167959 pbc="F F F"
Cd       0.00000000       0.00000000       0.00000000       0.00000000       0.00000000      -0.01120284
Cd       0.00000000       0.00000000       4.27171717       0.00000000       0.00000000       0.01120284
2
Properties=species:S:1:pos:R:3:forces:R:3 energy=-0.299503504476287 pbc="F F F"
Cd       0.00000000       0.00000000       0.00000000       0.00000000       0.00000000      -0.01282938
Cd       0.00000000       0.00000000       4.33131313       0.00000000       0.00000000       0.01282938
2
Properties=species:S:1:pos:R:3:forces:R:3 energy=-0.30031933530842886 pbc="F F F"
Cd       0.00000000       0.00000000       0.00000000       0.00000000       0.00000000      -0.01457769
Cd       0.00000000       0.00000000       4.39090909       0.00000000       0.00000000       0.01457769
2
Properties=species:S:1:pos:R:3:forces:R:3 energy=-0.30124507207814966 pbc="F F F"
Cd       0.00000000       0.00000000       0.00000000       0.00000000       0.00000000      -0.01652141
Cd       0.00000000       0.00000000       4.45050505       0.00000000       0.00000000       0.01652141
2
Properties=species:S:1:pos:R:3:forces:R:3 energy=-0.3022933402237552 pbc="F F F"
Cd       0.00000000       0.00000000       0.00000000       0.00000000       0.00000000      -0.01869610
Cd       0.00000000       0.00000000       4.51010101       0.00000000       0.00000000       0.01869610
2
Properties=species:S:1:pos:R:3:forces:R:3 energy=-0.3034777622873677 pbc="F F F"
Cd       0.00000000       0.00000000       0.00000000       0.00000000       0.00000000      -0.02108383
Cd       0.00000000       0.00000000       4.56969697       0.00000000       0.00000000       0.02108383
2
Properties=species:S:1:pos:R:3:forces:R:3 energy=-0.30480904113940444 pbc="F F F"
Cd       0.00000000       0.00000000       0.00000000       0.00000000       0.00000000      -0.02360616
Cd       0.00000000       0.00000000       4.62929293       0.00000000       0.00000000       0.02360616
2
Properties=species:S:1:pos:R:3:forces:R:3 energy=-0.3062914935296851 pbc="F F F"
Cd       0.00000000       0.00000000       0.00000000       0.00000000       0.00000000      -0.02613220
Cd       0.00000000       0.00000000       4.68888889       0.00000000       0.00000000       0.02613220
2
Properties=species:S:1:pos:R:3:forces:R:3 energy=-0.30792072996603104 pbc="F F F"
Cd       0.00000000       0.00000000       0.00000000       0.00000000       0.00000000      -0.02850102
Cd       0.00000000       0.00000000       4.74848485       0.00000000       0.00000000       0.02850102
2
Properties=species:S:1:pos:R:3:forces:R:3 energy=-0.3096823187774499 pbc="F F F"
Cd       0.00000000       0.00000000       0.00000000       0.00000000       0.00000000      -0.03055954
Cd       0.00000000       0.00000000       4.80808081       0.00000000       0.00000000       0.03055954
2
Properties=species:S:1:pos:R:3:forces:R:3 energy=-0.3115549412845395 pbc="F F F"
Cd       0.00000000       0.00000000       0.00000000       0.00000000       0.00000000      -0.03220928
Cd       0.00000000       0.00000000       4.86767677       0.00000000       0.00000000       0.03220928
2
Properties=species:S:1:pos:R:3:forces:R:3 energy=-0.3135134684822851 pbc="F F F"
Cd       0.00000000       0.00000000       0.00000000       0.00000000       0.00000000      -0.03345612
Cd       0.00000000       0.00000000       4.92727273       0.00000000       0.00000000       0.03345612
2
Properties=species:S:1:pos:R:3:forces:R:3 energy=-0.3155372777639049 pbc="F F F"
Cd       0.00000000       0.00000000       0.00000000       0.00000000       0.00000000      -0.03443441
Cd       0.00000000       0.00000000       4.98686869       0.00000000       0.00000000       0.03443441
2
Properties=species:S:1:pos:R:3:forces:R:3 energy=-0.31761684615371766 pbc="F F F"
Cd       0.00000000       0.00000000       0.00000000       0.00000000       0.00000000      -0.03538916
Cd       0.00000000       0.00000000       5.04646465       0.00000000       0.00000000       0.03538916
2
Properties=species:S:1:pos:R:3:forces:R:3 energy=-0.3197600884063571 pbc="F F F"
Cd       0.00000000       0.00000000       0.00000000       0.00000000       0.00000000      -0.03659180
Cd       0.00000000       0.00000000       5.10606061       0.00000000       0.00000000       0.03659180
2
Properties=species:S:1:pos:R:3:forces:R:3 energy=-0.3219868291979594 pbc="F F F"
Cd       0.00000000       0.00000000       0.00000000       0.00000000       0.00000000      -0.03818214
Cd       0.00000000       0.00000000       5.16565657       0.00000000       0.00000000       0.03818214
2
Properties=species:S:1:pos:R:3:forces:R:3 energy=-0.32431538128569926 pbc="F F F"
Cd       0.00000000       0.00000000       0.00000000       0.00000000       0.00000000      -0.03995596
Cd       0.00000000       0.00000000       5.22525253       0.00000000       0.00000000       0.03995596
2
Properties=species:S:1:pos:R:3:forces:R:3 energy=-0.3267389721627693 pbc="F F F"
Cd       0.00000000       0.00000000       0.00000000       0.00000000       0.00000000      -0.04120898
Cd       0.00000000       0.00000000       5.28484848       0.00000000       0.00000000       0.04120898
2
Properties=species:S:1:pos:R:3:forces:R:3 energy=-0.3291961718190571 pbc="F F F"
Cd       0.00000000       0.00000000       0.00000000       0.00000000       0.00000000      -0.04092123
Cd       0.00000000       0.00000000       5.34444444       0.00000000       0.00000000       0.04092123
2
Properties=species:S:1:pos:R:3:forces:R:3 energy=-0.3315816922692269 pbc="F F F"
Cd       0.00000000       0.00000000       0.00000000       0.00000000       0.00000000      -0.03897322
Cd       0.00000000       0.00000000       5.40404040       0.00000000       0.00000000       0.03897322
2
Properties=species:S:1:pos:R:3:forces:R:3 energy=-0.33385452996925136 pbc="F F F"
Cd       0.00000000       0.00000000       0.00000000       0.00000000       0.00000000      -0.03762763
Cd       0.00000000       0.00000000       5.46363636       0.00000000       0.00000000       0.03762763
2
Properties=species:S:1:pos:R:3:forces:R:3 energy=-0.3361000725643441 pbc="F F F"
Cd       0.00000000       0.00000000       0.00000000       0.00000000       0.00000000      -0.03773363
Cd       0.00000000       0.00000000       5.52323232       0.00000000       0.00000000       0.03773363
2
Properties=species:S:1:pos:R:3:forces:R:3 energy=-0.3382851716082535 pbc="F F F"
Cd       0.00000000       0.00000000       0.00000000       0.00000000       0.00000000      -0.03472994
Cd       0.00000000       0.00000000       5.58282828       0.00000000       0.00000000       0.03472994
2
Properties=species:S:1:pos:R:3:forces:R:3 energy=-0.3401582042889189 pbc="F F F"
Cd       0.00000000       0.00000000       0.00000000       0.00000000       0.00000000      -0.02784394
Cd       0.00000000       0.00000000       5.64242424       0.00000000       0.00000000       0.02784394
2
Properties=species:S:1:pos:R:3:forces:R:3 energy=-0.34163366456333716 pbc="F F F"
Cd       0.00000000       0.00000000       0.00000000       0.00000000       0.00000000      -0.02240702
Cd       0.00000000       0.00000000       5.70202020       0.00000000       0.00000000       0.02240702
2
Properties=species:S:1:pos:R:3:forces:R:3 energy=-0.3429482827693844 pbc="F F F"
Cd       0.00000000       0.00000000       0.00000000       0.00000000       0.00000000      -0.02251178
Cd       0.00000000       0.00000000       5.76161616       0.00000000       0.00000000       0.02251178
2
Properties=species:S:1:pos:R:3:forces:R:3 energy=-0.344280548879359 pbc="F F F"
Cd       0.00000000       0.00000000       0.00000000       0.00000000       0.00000000      -0.02074609
Cd       0.00000000       0.00000000       5.82121212       0.00000000       0.00000000       0.02074609
2
Properties=species:S:1:pos:R:3:forces:R:3 energy=-0.3452179258792551 pbc="F F F"
Cd       0.00000000       0.00000000       0.00000000       0.00000000       0.00000000      -0.00965425
Cd       0.00000000       0.00000000       5.88080808       0.00000000       0.00000000       0.00965425
2
Properties=species:S:1:pos:R:3:forces:R:3 energy=-0.34540307540786214 pbc="F F F"
Cd       0.00000000       0.00000000       0.00000000       0.00000000       0.00000000       0.00304236
Cd       0.00000000       0.00000000       5.94040404       0.00000000       0.00000000      -0.00304236
2
Properties=species:S:1:pos:R:3:forces:R:3 energy=-0.3450200312534185 pbc="F F F"
Cd       0.00000000       0.00000000       0.00000000       0.00000000       0.00000000       0.00797041
Cd       0.00000000       0.00000000       6.00000000       0.00000000       0.00000000      -0.00797041
