2
Properties=species:S:1:pos:R:3:forces:R:3 energy=2168.4968314918924 pbc="F F F"
Cl       0.00000000       0.00000000       0.00000000       0.00000000       0.00000000  -26748.28710938
Cl       0.00000000       0.00000000       0.18000000       0.00000000       0.00000000   26748.28710938
2
Properties=species:S:1:pos:R:3:forces:R:3 energy=1178.4184623512674 pbc="F F F"
Cl       0.00000000       0.00000000       0.00000000       0.00000000       0.00000000  -10117.09863281
Cl       0.00000000       0.00000000       0.23878788       0.00000000       0.00000000   10117.09863281
2
Properties=species:S:1:pos:R:3:forces:R:3 energy=777.3361259318219 pbc="F F F"
Cl       0.00000000       0.00000000       0.00000000       0.00000000       0.00000000   -4441.38330078
Cl       0.00000000       0.00000000       0.29757576       0.00000000       0.00000000    4441.38330078
2
Properties=species:S:1:pos:R:3:forces:R:3 energy=596.9857231061263 pbc="F F F"
Cl       0.00000000       0.00000000       0.00000000       0.00000000       0.00000000   -1931.04772949
Cl       0.00000000       0.00000000       0.35636364       0.00000000       0.00000000    1931.04772949
2
Properties=species:S:1:pos:R:3:forces:R:3 energy=531.0548759571644 pbc="F F F"
Cl       0.00000000       0.00000000       0.00000000       0.00000000       0.00000000    -440.12081909
Cl       0.00000000       0.00000000       0.41515152       0.00000000       0.00000000     440.12081909
2
Properties=species:S:1:pos:R:3:forces:R:3 energy=526.835515640448 pbc="F F F"
Cl       0.00000000       0.00000000       0.00000000       0.00000000       0.00000000      92.73046875
Cl       0.00000000       0.00000000       0.47393939       0.00000000       0.00000000     -92.73046875
2
Properties=species:S:1:pos:R:3:forces:R:3 energy=517.7859551600973 pbc="F F F"
Cl       0.00000000       0.00000000       0.00000000       0.00000000       0.00000000    -537.20214844
Cl       0.00000000       0.00000000       0.53272727       0.00000000       0.00000000     537.20214844
2
Properties=species:S:1:pos:R:3:forces:R:3 energy=449.04425605538887 pbc="F F F"
Cl       0.00000000       0.00000000       0.00000000       0.00000000       0.00000000   -1245.07641602
Cl       0.00000000       0.00000000       0.59151515       0.00000000       0.00000000    1245.07641602
2
Properties=species:S:1:pos:R:3:forces:R:3 energy=380.6509762161613 pbc="F F F"
Cl       0.00000000       0.00000000       0.00000000       0.00000000       0.00000000   -1218.76452637
Cl       0.00000000       0.00000000       0.65030303       0.00000000       0.00000000    1218.76452637
2
Properties=species:S:1:pos:R:3:forces:R:3 energy=307.0529845705772 pbc="F F F"
Cl       0.00000000       0.00000000       0.00000000       0.00000000       0.00000000   -1231.80407715
Cl       0.00000000       0.00000000       0.70909091       0.00000000       0.00000000    1231.80407715
2
Properties=species:S:1:pos:R:3:forces:R:3 energy=240.50418741932177 pbc="F F F"
Cl       0.00000000       0.00000000       0.00000000       0.00000000       0.00000000   -1029.43566895
Cl       0.00000000       0.00000000       0.76787879       0.00000000       0.00000000    1029.43566895
2
Properties=species:S:1:pos:R:3:forces:R:3 energy=185.68282273445473 pbc="F F F"
Cl       0.00000000       0.00000000       0.00000000       0.00000000       0.00000000    -839.80578613
Cl       0.00000000       0.00000000       0.82666667       0.00000000       0.00000000     839.80578613
2
Properties=species:S:1:pos:R:3:forces:R:3 energy=139.89351705684768 pbc="F F F"
Cl       0.00000000       0.00000000       0.00000000       0.00000000       0.00000000    -706.51916504
Cl       0.00000000       0.00000000       0.88545455       0.00000000       0.00000000     706.51916504
2
Properties=species:S:1:pos:R:3:forces:R:3 energy=103.55442996323067 pbc="F F F"
Cl       0.00000000       0.00000000       0.00000000       0.00000000       0.00000000    -535.11590576
Cl       0.00000000       0.00000000       0.94424242       0.00000000       0.00000000     535.11590576
2
Properties=species:S:1:pos:R:3:forces:R:3 energy=76.2637823991763 pbc="F F F"
Cl       0.00000000       0.00000000       0.00000000       0.00000000       0.00000000    -397.91830444
Cl       0.00000000       0.00000000       1.00303030       0.00000000       0.00000000     397.91830444
2
Properties=species:S:1:pos:R:3:forces:R:3 energy=56.06683970182266 pbc="F F F"
Cl       0.00000000       0.00000000       0.00000000       0.00000000       0.00000000    -296.47579956
Cl       0.00000000       0.00000000       1.06181818       0.00000000       0.00000000     296.47579956
2
Properties=species:S:1:pos:R:3:forces:R:3 energy=40.77113912742517 pbc="F F F"
Cl       0.00000000       0.00000000       0.00000000       0.00000000       0.00000000    -227.12602234
Cl       0.00000000       0.00000000       1.12060606       0.00000000       0.00000000     227.12602234
2
Properties=species:S:1:pos:R:3:forces:R:3 energy=29.0867142923047 pbc="F F F"
Cl       0.00000000       0.00000000       0.00000000       0.00000000       0.00000000    -172.33288574
Cl       0.00000000       0.00000000       1.17939394       0.00000000       0.00000000     172.33288574
2
Properties=species:S:1:pos:R:3:forces:R:3 energy=20.301397700515377 pbc="F F F"
Cl       0.00000000       0.00000000       0.00000000       0.00000000       0.00000000    -128.20411682
Cl       0.00000000       0.00000000       1.23818182       0.00000000       0.00000000     128.20411682
2
Properties=species:S:1:pos:R:3:forces:R:3 energy=13.819909940389868 pbc="F F F"
Cl       0.00000000       0.00000000       0.00000000       0.00000000       0.00000000     -93.93766785
Cl       0.00000000       0.00000000       1.29696970       0.00000000       0.00000000      93.93766785
2
Properties=species:S:1:pos:R:3:forces:R:3 energy=9.07629905302757 pbc="F F F"
Cl       0.00000000       0.00000000       0.00000000       0.00000000       0.00000000     -68.79740143
Cl       0.00000000       0.00000000       1.35575758       0.00000000       0.00000000      68.79740143
2
Properties=species:S:1:pos:R:3:forces:R:3 energy=5.596704194732717 pbc="F F F"
Cl       0.00000000       0.00000000       0.00000000       0.00000000       0.00000000     -50.52814865
Cl       0.00000000       0.00000000       1.41454545       0.00000000       0.00000000      50.52814865
2
Properties=species:S:1:pos:R:3:forces:R:3 energy=3.042079346568036 pbc="F F F"
Cl       0.00000000       0.00000000       0.00000000       0.00000000       0.00000000     -37.04684830
Cl       0.00000000       0.00000000       1.47333333       0.00000000       0.00000000      37.04684830
2
Properties=species:S:1:pos:R:3:forces:R:3 energy=1.1742002579170299 pbc="F F F"
Cl       0.00000000       0.00000000       0.00000000       0.00000000       0.00000000     -26.98418427
Cl       0.00000000       0.00000000       1.53212121       0.00000000       0.00000000      26.98418427
2
Properties=species:S:1:pos:R:3:forces:R:3 energy=-0.1796019884535603 pbc="F F F"
Cl       0.00000000       0.00000000       0.00000000       0.00000000       0.00000000     -19.42907906
Cl       0.00000000       0.00000000       1.59090909       0.00000000       0.00000000      19.42907906
2
Properties=species:S:1:pos:R:3:forces:R:3 energy=-1.146012448733587 pbc="F F F"
Cl       0.00000000       0.00000000       0.00000000       0.00000000       0.00000000     -13.70796108
Cl       0.00000000       0.00000000       1.64969697       0.00000000       0.00000000      13.70796108
2
Properties=species:S:1:pos:R:3:forces:R:3 energy=-1.8174728047579074 pbc="F F F"
Cl       0.00000000       0.00000000       0.00000000       0.00000000       0.00000000      -9.32638931
Cl       0.00000000       0.00000000       1.70848485       0.00000000       0.00000000       9.32638931
2
Properties=species:S:1:pos:R:3:forces:R:3 energy=-2.2620131127321943 pbc="F F F"
Cl       0.00000000       0.00000000       0.00000000       0.00000000       0.00000000      -5.94062996
Cl       0.00000000       0.00000000       1.76727273       0.00000000       0.00000000       5.94062996
2
Properties=species:S:1:pos:R:3:forces:R:3 energy=-2.5307404566506837 pbc="F F F"
Cl       0.00000000       0.00000000       0.00000000       0.00000000       0.00000000      -3.31207418
Cl       0.00000000       0.00000000       1.82606061       0.00000000       0.00000000       3.31207418
2
Properties=species:S:1:pos:R:3:forces:R:3 energy=-2.6629790727557463 pbc="F F F"
Cl       0.00000000       0.00000000       0.00000000       0.00000000       0.00000000      -1.27442420
Cl       0.00000000       0.00000000       1.88484848       0.00000000       0.00000000       1.27442420
2
Properties=species:S:1:pos:R:3:forces:R:3 energy=-2.689931869202086 pbc="F F F"
Cl       0.00000000       0.00000000       0.00000000       0.00000000       0.00000000       0.28485978
Cl       0.00000000       0.00000000       1.94363636       0.00000000       0.00000000      -0.28485978
2
Properties=species:S:1:pos:R:3:forces:R:3 energy=-2.6373790479397217 pbc="F F F"
Cl       0.00000000       0.00000000       0.00000000       0.00000000       0.00000000       1.44068515
Cl       0.00000000       0.00000000       2.00242424       0.00000000       0.00000000      -1.44068515
2
Properties=species:S:1:pos:R:3:forces:R:3 energy=-2.5273888340467754 pbc="F F F"
Cl       0.00000000       0.00000000       0.00000000       0.00000000       0.00000000       2.24693871
Cl       0.00000000       0.00000000       2.06121212       0.00000000       0.00000000      -2.24693871
2
Properties=species:S:1:pos:R:3:forces:R:3 energy=-2.379137591292071 pbc="F F F"
Cl       0.00000000       0.00000000       0.00000000       0.00000000       0.00000000       2.74971056
Cl       0.00000000       0.00000000       2.12000000       0.00000000       0.00000000      -2.74971056
2
Properties=species:S:1:pos:R:3:forces:R:3 energy=-2.20917289919819 pbc="F F F"
Cl       0.00000000       0.00000000       0.00000000       0.00000000       0.00000000       2.99319863
Cl       0.00000000       0.00000000       2.17878788       0.00000000       0.00000000      -2.99319863
2
Properties=species:S:1:pos:R:3:forces:R:3 energy=-2.031377379941715 pbc="F F F"
Cl       0.00000000       0.00000000       0.00000000       0.00000000       0.00000000       3.02414227
Cl       0.00000000       0.00000000       2.23757576       0.00000000       0.00000000      -3.02414227
2
Properties=species:S:1:pos:R:3:forces:R:3 energy=-1.8568148046641468 pbc="F F F"
Cl       0.00000000       0.00000000       0.00000000       0.00000000       0.00000000       2.89131308
Cl       0.00000000       0.00000000       2.29636364       0.00000000       0.00000000      -2.89131308
2
Properties=species:S:1:pos:R:3:forces:R:3 energy=-1.6937344201884033 pbc="F F F"
Cl       0.00000000       0.00000000       0.00000000       0.00000000       0.00000000       2.64053845
Cl       0.00000000       0.00000000       2.35515152       0.00000000       0.00000000      -2.64053845
2
Properties=species:S:1:pos:R:3:forces:R:3 energy=-1.547905176860828 pbc="F F F"
Cl       0.00000000       0.00000000       0.00000000       0.00000000       0.00000000       2.31019306
Cl       0.00000000       0.00000000       2.41393939       0.00000000       0.00000000      -2.31019306
2
Properties=species:S:1:pos:R:3:forces:R:3 energy=-1.4230453114895836 pbc="F F F"
Cl       0.00000000       0.00000000       0.00000000       0.00000000       0.00000000       1.93219090
Cl       0.00000000       0.00000000       2.47272727       0.00000000       0.00000000      -1.93219090
2
Properties=species:S:1:pos:R:3:forces:R:3 energy=-1.321062534224244 pbc="F F F"
Cl       0.00000000       0.00000000       0.00000000       0.00000000       0.00000000       1.53717232
Cl       0.00000000       0.00000000       2.53151515       0.00000000       0.00000000      -1.53717232
2
Properties=species:S:1:pos:R:3:forces:R:3 energy=-1.2420126263734392 pbc="F F F"
Cl       0.00000000       0.00000000       0.00000000       0.00000000       0.00000000       1.15736854
Cl       0.00000000       0.00000000       2.59030303       0.00000000       0.00000000      -1.15736854
2
Properties=species:S:1:pos:R:3:forces:R:3 energy=-1.1840829087253513 pbc="F F F"
Cl       0.00000000       0.00000000       0.00000000       0.00000000       0.00000000       0.82318938
Cl       0.00000000       0.00000000       2.64909091       0.00000000       0.00000000      -0.82318938
2
Properties=species:S:1:pos:R:3:forces:R:3 energy=-1.1439036373950073 pbc="F F F"
Cl       0.00000000       0.00000000       0.00000000       0.00000000       0.00000000       0.55597156
Cl       0.00000000       0.00000000       2.70787879       0.00000000       0.00000000      -0.55597156
2
Properties=species:S:1:pos:R:3:forces:R:3 energy=-1.1172452359720177 pbc="F F F"
Cl       0.00000000       0.00000000       0.00000000       0.00000000       0.00000000       0.36330852
Cl       0.00000000       0.00000000       2.76666667       0.00000000       0.00000000      -0.36330852
2
Properties=species:S:1:pos:R:3:forces:R:3 energy=-1.0998223585802263 pbc="F F F"
Cl       0.00000000       0.00000000       0.00000000       0.00000000       0.00000000       0.24003632
Cl       0.00000000       0.00000000       2.82545455       0.00000000       0.00000000      -0.24003632
2
Properties=species:S:1:pos:R:3:forces:R:3 energy=-1.0879231300231558 pbc="F F F"
Cl       0.00000000       0.00000000       0.00000000       0.00000000       0.00000000       0.17274569
Cl       0.00000000       0.00000000       2.88424242       0.00000000       0.00000000      -0.17274569
2
Properties=species:S:1:pos:R:3:forces:R:3 energy=-1.0787360559405188 pbc="F F F"
Cl       0.00000000       0.00000000       0.00000000       0.00000000       0.00000000       0.14506751
Cl       0.00000000       0.00000000       2.94303030       0.00000000       0.00000000      -0.14506751
2
Properties=species:S:1:pos:R:3:forces:R:3 energy=-1.070390229424744 pbc="F F F"
Cl       0.00000000       0.00000000       0.00000000       0.00000000       0.00000000       0.14183007
Cl       0.00000000       0.00000000       3.00181818       0.00000000       0.00000000      -0.14183007
2
Properties=species:S:1:pos:R:3:forces:R:3 energy=-1.061815661923284 pbc="F F F"
Cl       0.00000000       0.00000000       0.00000000       0.00000000       0.00000000       0.15121591
Cl       0.00000000       0.00000000       3.06060606       0.00000000       0.00000000      -0.15121591
2
Properties=species:S:1:pos:R:3:forces:R:3 energy=-1.0525234120475888 pbc="F F F"
Cl       0.00000000       0.00000000       0.00000000       0.00000000       0.00000000       0.16518143
Cl       0.00000000       0.00000000       3.11939394       0.00000000       0.00000000      -0.16518143
2
Properties=species:S:1:pos:R:3:forces:R:3 energy=-1.0424002528276408 pbc="F F F"
Cl       0.00000000       0.00000000       0.00000000       0.00000000       0.00000000       0.17891337
Cl       0.00000000       0.00000000       3.17818182       0.00000000       0.00000000      -0.17891337
2
Properties=species:S:1:pos:R:3:forces:R:3 energy=-1.0315409366580341 pbc="F F F"
Cl       0.00000000       0.00000000       0.00000000       0.00000000       0.00000000       0.18997271
Cl       0.00000000       0.00000000       3.23696970       0.00000000       0.00000000      -0.18997271
2
Properties=species:S:1:pos:R:3:forces:R:3 energy=-1.02013378030656 pbc="F F F"
Cl       0.00000000       0.00000000       0.00000000       0.00000000       0.00000000       0.19750917
Cl       0.00000000       0.00000000       3.29575758       0.00000000       0.00000000      -0.19750917
2
Properties=species:S:1:pos:R:3:forces:R:3 energy=-1.0083857002780765 pbc="F F F"
Cl       0.00000000       0.00000000       0.00000000       0.00000000       0.00000000       0.20164298
Cl       0.00000000       0.00000000       3.35454545       0.00000000       0.00000000      -0.20164298
2
Properties=species:S:1:pos:R:3:forces:R:3 energy=-0.9964794261830264 pbc="F F F"
Cl       0.00000000       0.00000000       0.00000000       0.00000000       0.00000000       0.20302756
Cl       0.00000000       0.00000000       3.41333333       0.00000000       0.00000000      -0.20302756
2
Properties=species:S:1:pos:R:3:forces:R:3 energy=-0.9845515640602733 pbc="F F F"
Cl       0.00000000       0.00000000       0.00000000       0.00000000       0.00000000       0.20252819
Cl       0.00000000       0.00000000       3.47212121       0.00000000       0.00000000      -0.20252819
2
Properties=species:S:1:pos:R:3:forces:R:3 energy=-0.9726870899910507 pbc="F F F"
Cl       0.00000000       0.00000000       0.00000000       0.00000000       0.00000000       0.20100446
Cl       0.00000000       0.00000000       3.53090909       0.00000000       0.00000000      -0.20100446
2
Properties=species:S:1:pos:R:3:forces:R:3 energy=-0.9609242260084798 pbc="F F F"
Cl       0.00000000       0.00000000       0.00000000       0.00000000       0.00000000       0.19916996
Cl       0.00000000       0.00000000       3.58969697       0.00000000       0.00000000      -0.19916996
2
Properties=species:S:1:pos:R:3:forces:R:3 energy=-0.9492658323362607 pbc="F F F"
Cl       0.00000000       0.00000000       0.00000000       0.00000000       0.00000000       0.19750613
Cl       0.00000000       0.00000000       3.64848485       0.00000000       0.00000000      -0.19750613
2
Properties=species:S:1:pos:R:3:forces:R:3 energy=-0.9376943944970223 pbc="F F F"
Cl       0.00000000       0.00000000       0.00000000       0.00000000       0.00000000       0.19623658
Cl       0.00000000       0.00000000       3.70727273       0.00000000       0.00000000      -0.19623658
2
Properties=species:S:1:pos:R:3:forces:R:3 energy=-0.9261856926148276 pbc="F F F"
Cl       0.00000000       0.00000000       0.00000000       0.00000000       0.00000000       0.19534165
Cl       0.00000000       0.00000000       3.76606061       0.00000000       0.00000000      -0.19534165
2
Properties=species:S:1:pos:R:3:forces:R:3 energy=-0.9147233617875442 pbc="F F F"
Cl       0.00000000       0.00000000       0.00000000       0.00000000       0.00000000       0.19462350
Cl       0.00000000       0.00000000       3.82484848       0.00000000       0.00000000      -0.19462350
2
Properties=species:S:1:pos:R:3:forces:R:3 energy=-0.9033048371281703 pbc="F F F"
Cl       0.00000000       0.00000000       0.00000000       0.00000000       0.00000000       0.19379410
Cl       0.00000000       0.00000000       3.88363636       0.00000000       0.00000000      -0.19379410
2
Properties=species:S:1:pos:R:3:forces:R:3 energy=-0.8919456868969055 pbc="F F F"
Cl       0.00000000       0.00000000       0.00000000       0.00000000       0.00000000       0.19257279
Cl       0.00000000       0.00000000       3.94242424       0.00000000       0.00000000      -0.19257279
2
Properties=species:S:1:pos:R:3:forces:R:3 energy=-0.8806745001729231 pbc="F F F"
Cl       0.00000000       0.00000000       0.00000000       0.00000000       0.00000000       0.19077973
Cl       0.00000000       0.00000000       4.00121212       0.00000000       0.00000000      -0.19077973
2
Properties=species:S:1:pos:R:3:forces:R:3 energy=-0.8695265188688264 pbc="F F F"
Cl       0.00000000       0.00000000       0.00000000       0.00000000       0.00000000       0.18838447
Cl       0.00000000       0.00000000       4.06000000       0.00000000       0.00000000      -0.18838447
2
Properties=species:S:1:pos:R:3:forces:R:3 energy=-0.8585345627774861 pbc="F F F"
Cl       0.00000000       0.00000000       0.00000000       0.00000000       0.00000000       0.18551749
Cl       0.00000000       0.00000000       4.11878788       0.00000000       0.00000000      -0.18551749
2
Properties=species:S:1:pos:R:3:forces:R:3 energy=-0.8477183745958263 pbc="F F F"
Cl       0.00000000       0.00000000       0.00000000       0.00000000       0.00000000       0.18243402
Cl       0.00000000       0.00000000       4.17757576       0.00000000       0.00000000      -0.18243402
2
Properties=species:S:1:pos:R:3:forces:R:3 energy=-0.837082359700056 pbc="F F F"
Cl       0.00000000       0.00000000       0.00000000       0.00000000       0.00000000       0.17945142
Cl       0.00000000       0.00000000       4.23636364       0.00000000       0.00000000      -0.17945142
2
Properties=species:S:1:pos:R:3:forces:R:3 energy=-0.8266111688583313 pbc="F F F"
Cl       0.00000000       0.00000000       0.00000000       0.00000000       0.00000000       0.17687498
Cl       0.00000000       0.00000000       4.29515152       0.00000000       0.00000000      -0.17687498
2
Properties=species:S:1:pos:R:3:forces:R:3 energy=-0.8162736669833554 pbc="F F F"
Cl       0.00000000       0.00000000       0.00000000       0.00000000       0.00000000       0.17494167
Cl       0.00000000       0.00000000       4.35393939       0.00000000       0.00000000      -0.17494167
2
Properties=species:S:1:pos:R:3:forces:R:3 energy=-0.806027549616513 pbc="F F F"
Cl       0.00000000       0.00000000       0.00000000       0.00000000       0.00000000       0.17376690
Cl       0.00000000       0.00000000       4.41272727       0.00000000       0.00000000      -0.17376690
2
Properties=species:S:1:pos:R:3:forces:R:3 energy=-0.7958283762833863 pbc="F F F"
Cl       0.00000000       0.00000000       0.00000000       0.00000000       0.00000000       0.17331877
Cl       0.00000000       0.00000000       4.47151515       0.00000000       0.00000000      -0.17331877
2
Properties=species:S:1:pos:R:3:forces:R:3 energy=-0.7856389339666716 pbc="F F F"
Cl       0.00000000       0.00000000       0.00000000       0.00000000       0.00000000       0.17338419
Cl       0.00000000       0.00000000       4.53030303       0.00000000       0.00000000      -0.17338419
2
Properties=species:S:1:pos:R:3:forces:R:3 energy=-0.7754405267266854 pbc="F F F"
Cl       0.00000000       0.00000000       0.00000000       0.00000000       0.00000000       0.17355084
Cl       0.00000000       0.00000000       4.58909091       0.00000000       0.00000000      -0.17355084
2
Properties=species:S:1:pos:R:3:forces:R:3 energy=-0.7652432562106644 pbc="F F F"
Cl       0.00000000       0.00000000       0.00000000       0.00000000       0.00000000       0.17323294
Cl       0.00000000       0.00000000       4.64787879       0.00000000       0.00000000      -0.17323294
2
Properties=species:S:1:pos:R:3:forces:R:3 energy=-0.7550954728447504 pbc="F F F"
Cl       0.00000000       0.00000000       0.00000000       0.00000000       0.00000000       0.17174338
Cl       0.00000000       0.00000000       4.70666667       0.00000000       0.00000000      -0.17174338
2
Properties=species:S:1:pos:R:3:forces:R:3 energy=-0.745085617430333 pbc="F F F"
Cl       0.00000000       0.00000000       0.00000000       0.00000000       0.00000000       0.16846724
Cl       0.00000000       0.00000000       4.76545455       0.00000000       0.00000000      -0.16846724
2
Properties=species:S:1:pos:R:3:forces:R:3 energy=-0.7353282330594589 pbc="F F F"
Cl       0.00000000       0.00000000       0.00000000       0.00000000       0.00000000       0.16312289
Cl       0.00000000       0.00000000       4.82424242       0.00000000       0.00000000      -0.16312289
2
Properties=species:S:1:pos:R:3:forces:R:3 energy=-0.7259409957358158 pbc="F F F"
Cl       0.00000000       0.00000000       0.00000000       0.00000000       0.00000000       0.15605904
Cl       0.00000000       0.00000000       4.88303030       0.00000000       0.00000000      -0.15605904
2
Properties=species:S:1:pos:R:3:forces:R:3 energy=-0.7169897565163821 pbc="F F F"
Cl       0.00000000       0.00000000       0.00000000       0.00000000       0.00000000       0.14852092
Cl       0.00000000       0.00000000       4.94181818       0.00000000       0.00000000      -0.14852092
2
Properties=species:S:1:pos:R:3:forces:R:3 energy=-0.7084438207928215 pbc="F F F"
Cl       0.00000000       0.00000000       0.00000000       0.00000000       0.00000000       0.14275917
Cl       0.00000000       0.00000000       5.00060606       0.00000000       0.00000000      -0.14275917
2
Properties=species:S:1:pos:R:3:forces:R:3 energy=-0.7001108095222335 pbc="F F F"
Cl       0.00000000       0.00000000       0.00000000       0.00000000       0.00000000       0.14177901
Cl       0.00000000       0.00000000       5.05939394       0.00000000       0.00000000      -0.14177901
2
Properties=species:S:1:pos:R:3:forces:R:3 energy=-0.6916206247857515 pbc="F F F"
Cl       0.00000000       0.00000000       0.00000000       0.00000000       0.00000000       0.14858617
Cl       0.00000000       0.00000000       5.11818182       0.00000000       0.00000000      -0.14858617
2
Properties=species:S:1:pos:R:3:forces:R:3 energy=-0.682454137441681 pbc="F F F"
Cl       0.00000000       0.00000000       0.00000000       0.00000000       0.00000000       0.16483191
Cl       0.00000000       0.00000000       5.17696970       0.00000000       0.00000000      -0.16483191
2
Properties=species:S:1:pos:R:3:forces:R:3 energy=-0.6720827899150734 pbc="F F F"
Cl       0.00000000       0.00000000       0.00000000       0.00000000       0.00000000       0.18897010
Cl       0.00000000       0.00000000       5.23575758       0.00000000       0.00000000      -0.18897010
2
Properties=species:S:1:pos:R:3:forces:R:3 energy=-0.6602019994731448 pbc="F F F"
Cl       0.00000000       0.00000000       0.00000000       0.00000000       0.00000000       0.21469459
Cl       0.00000000       0.00000000       5.29454545       0.00000000       0.00000000      -0.21469459
2
Properties=species:S:1:pos:R:3:forces:R:3 energy=-0.6470035086763098 pbc="F F F"
Cl       0.00000000       0.00000000       0.00000000       0.00000000       0.00000000       0.23219380
Cl       0.00000000       0.00000000       5.35333333       0.00000000       0.00000000      -0.23219380
2
Properties=species:S:1:pos:R:3:forces:R:3 energy=-0.6331518958024404 pbc="F F F"
Cl       0.00000000       0.00000000       0.00000000       0.00000000       0.00000000       0.23777635
Cl       0.00000000       0.00000000       5.41212121       0.00000000       0.00000000      -0.23777635
2
Properties=species:S:1:pos:R:3:forces:R:3 energy=-0.6189707276814024 pbc="F F F"
Cl       0.00000000       0.00000000       0.00000000       0.00000000       0.00000000       0.24725790
Cl       0.00000000       0.00000000       5.47090909       0.00000000       0.00000000      -0.24725790
2
Properties=species:S:1:pos:R:3:forces:R:3 energy=-0.6037776783961084 pbc="F F F"
Cl       0.00000000       0.00000000       0.00000000       0.00000000       0.00000000       0.26974279
Cl       0.00000000       0.00000000       5.52969697       0.00000000       0.00000000      -0.26974279
2
Properties=species:S:1:pos:R:3:forces:R:3 energy=-0.5877009782581925 pbc="F F F"
Cl       0.00000000       0.00000000       0.00000000       0.00000000       0.00000000       0.27078301
Cl       0.00000000       0.00000000       5.58848485       0.00000000       0.00000000      -0.27078301
2
Properties=species:S:1:pos:R:3:forces:R:3 energy=-0.5726278949967427 pbc="F F F"
Cl       0.00000000       0.00000000       0.00000000       0.00000000       0.00000000       0.23900099
Cl       0.00000000       0.00000000       5.64727273       0.00000000       0.00000000      -0.23900099
2
Properties=species:S:1:pos:R:3:forces:R:3 energy=-0.5595410043611673 pbc="F F F"
Cl       0.00000000       0.00000000       0.00000000       0.00000000       0.00000000       0.21073321
Cl       0.00000000       0.00000000       5.70606061       0.00000000       0.00000000      -0.21073321
2
Properties=species:S:1:pos:R:3:forces:R:3 energy=-0.5470309352227477 pbc="F F F"
Cl       0.00000000       0.00000000       0.00000000       0.00000000       0.00000000       0.21896721
Cl       0.00000000       0.00000000       5.76484848       0.00000000       0.00000000      -0.21896721
2
Properties=species:S:1:pos:R:3:forces:R:3 energy=-0.5340911672097673 pbc="F F F"
Cl       0.00000000       0.00000000       0.00000000       0.00000000       0.00000000       0.21098039
Cl       0.00000000       0.00000000       5.82363636       0.00000000       0.00000000      -0.21098039
2
Properties=species:S:1:pos:R:3:forces:R:3 energy=-0.5237575427945426 pbc="F F F"
Cl       0.00000000       0.00000000       0.00000000       0.00000000       0.00000000       0.13247432
Cl       0.00000000       0.00000000       5.88242424       0.00000000       0.00000000      -0.13247432
2
Properties=species:S:1:pos:R:3:forces:R:3 energy=-0.5188061308653956 pbc="F F F"
Cl       0.00000000       0.00000000       0.00000000       0.00000000       0.00000000       0.03972173
Cl       0.00000000       0.00000000       5.94121212       0.00000000       0.00000000      -0.03972173
2
Properties=species:S:1:pos:R:3:forces:R:3 energy=-0.5179685592136144 pbc="F F F"
Cl       0.00000000       0.00000000       0.00000000       0.00000000       0.00000000       0.00142215
Cl       0.00000000       0.00000000       6.00000000       0.00000000       0.00000000      -0.00142215
