2
Properties=species:S:1:pos:R:3:forces:R:3 energy=2168.4963432106424 pbc="F F F"
Cl       0.00000000       0.00000000       0.00000000       0.00000000       0.00000000  -26748.28710938
Cl       0.00000000       0.00000000       0.18000000       0.00000000       0.00000000   26748.28710938
2
Properties=species:S:1:pos:R:3:forces:R:3 energy=1178.4184623512674 pbc="F F F"
Cl       0.00000000       0.00000000       0.00000000       0.00000000       0.00000000  -10117.09863281
Cl       0.00000000       0.00000000       0.23878788       0.00000000       0.00000000   10117.09863281
2
Properties=species:S:1:pos:R:3:forces:R:3 energy=777.3352714396344 pbc="F F F"
Cl       0.00000000       0.00000000       0.00000000       0.00000000       0.00000000   -4441.38427734
Cl       0.00000000       0.00000000       0.29757576       0.00000000       0.00000000    4441.38427734
2
Properties=species:S:1:pos:R:3:forces:R:3 energy=596.9851737897201 pbc="F F F"
Cl       0.00000000       0.00000000       0.00000000       0.00000000       0.00000000   -1931.04638672
Cl       0.00000000       0.00000000       0.35636364       0.00000000       0.00000000    1931.04638672
2
Properties=species:S:1:pos:R:3:forces:R:3 energy=531.0541435352894 pbc="F F F"
Cl       0.00000000       0.00000000       0.00000000       0.00000000       0.00000000    -440.12136841
Cl       0.00000000       0.00000000       0.41515152       0.00000000       0.00000000     440.12136841
2
Properties=species:S:1:pos:R:3:forces:R:3 energy=526.8356987459167 pbc="F F F"
Cl       0.00000000       0.00000000       0.00000000       0.00000000       0.00000000      92.72939301
Cl       0.00000000       0.00000000       0.47393939       0.00000000       0.00000000     -92.72939301
2
Properties=species:S:1:pos:R:3:forces:R:3 energy=517.7855889491598 pbc="F F F"
Cl       0.00000000       0.00000000       0.00000000       0.00000000       0.00000000    -537.19805908
Cl       0.00000000       0.00000000       0.53272727       0.00000000       0.00000000     537.19805908
2
Properties=species:S:1:pos:R:3:forces:R:3 energy=449.04385932687325 pbc="F F F"
Cl       0.00000000       0.00000000       0.00000000       0.00000000       0.00000000   -1245.07519531
Cl       0.00000000       0.00000000       0.59151515       0.00000000       0.00000000    1245.07519531
2
Properties=species:S:1:pos:R:3:forces:R:3 energy=380.65076259311445 pbc="F F F"
Cl       0.00000000       0.00000000       0.00000000       0.00000000       0.00000000   -1218.76342773
Cl       0.00000000       0.00000000       0.65030303       0.00000000       0.00000000    1218.76342773
2
Properties=species:S:1:pos:R:3:forces:R:3 energy=307.0530761233116 pbc="F F F"
Cl       0.00000000       0.00000000       0.00000000       0.00000000       0.00000000   -1231.80358887
Cl       0.00000000       0.00000000       0.70909091       0.00000000       0.00000000    1231.80358887
2
Properties=species:S:1:pos:R:3:forces:R:3 energy=240.50400431385302 pbc="F F F"
Cl       0.00000000       0.00000000       0.00000000       0.00000000       0.00000000   -1029.43408203
Cl       0.00000000       0.00000000       0.76787879       0.00000000       0.00000000    1029.43408203
2
Properties=species:S:1:pos:R:3:forces:R:3 energy=185.68286851082192 pbc="F F F"
Cl       0.00000000       0.00000000       0.00000000       0.00000000       0.00000000    -839.80621338
Cl       0.00000000       0.00000000       0.82666667       0.00000000       0.00000000     839.80621338
2
Properties=species:S:1:pos:R:3:forces:R:3 energy=139.89357809200393 pbc="F F F"
Cl       0.00000000       0.00000000       0.00000000       0.00000000       0.00000000    -706.51934814
Cl       0.00000000       0.00000000       0.88545455       0.00000000       0.00000000     706.51934814
2
Properties=species:S:1:pos:R:3:forces:R:3 energy=103.55440707504708 pbc="F F F"
Cl       0.00000000       0.00000000       0.00000000       0.00000000       0.00000000    -535.11566162
Cl       0.00000000       0.00000000       0.94424242       0.00000000       0.00000000     535.11566162
2
Properties=species:S:1:pos:R:3:forces:R:3 energy=76.26375188159818 pbc="F F F"
Cl       0.00000000       0.00000000       0.00000000       0.00000000       0.00000000    -397.91836548
Cl       0.00000000       0.00000000       1.00303030       0.00000000       0.00000000     397.91836548
2
Properties=species:S:1:pos:R:3:forces:R:3 energy=56.06685496061172 pbc="F F F"
Cl       0.00000000       0.00000000       0.00000000       0.00000000       0.00000000    -296.47576904
Cl       0.00000000       0.00000000       1.06181818       0.00000000       0.00000000     296.47576904
2
Properties=species:S:1:pos:R:3:forces:R:3 energy=40.77115057151697 pbc="F F F"
Cl       0.00000000       0.00000000       0.00000000       0.00000000       0.00000000    -227.12617493
Cl       0.00000000       0.00000000       1.12060606       0.00000000       0.00000000     227.12617493
2
Properties=species:S:1:pos:R:3:forces:R:3 energy=29.086704755561534 pbc="F F F"
Cl       0.00000000       0.00000000       0.00000000       0.00000000       0.00000000    -172.33271790
Cl       0.00000000       0.00000000       1.17939394       0.00000000       0.00000000     172.33271790
2
Properties=species:S:1:pos:R:3:forces:R:3 energy=20.30139197846948 pbc="F F F"
Cl       0.00000000       0.00000000       0.00000000       0.00000000       0.00000000    -128.20399475
Cl       0.00000000       0.00000000       1.23818182       0.00000000       0.00000000     128.20399475
2
Properties=species:S:1:pos:R:3:forces:R:3 energy=13.819904215176148 pbc="F F F"
Cl       0.00000000       0.00000000       0.00000000       0.00000000       0.00000000     -93.93764496
Cl       0.00000000       0.00000000       1.29696970       0.00000000       0.00000000      93.93764496
2
Properties=species:S:1:pos:R:3:forces:R:3 energy=9.07629905302757 pbc="F F F"
Cl       0.00000000       0.00000000       0.00000000       0.00000000       0.00000000     -68.79738617
Cl       0.00000000       0.00000000       1.35575758       0.00000000       0.00000000      68.79738617
2
Properties=species:S:1:pos:R:3:forces:R:3 energy=5.596709919946437 pbc="F F F"
Cl       0.00000000       0.00000000       0.00000000       0.00000000       0.00000000     -50.52817535
Cl       0.00000000       0.00000000       1.41454545       0.00000000       0.00000000      50.52817535
2
Properties=species:S:1:pos:R:3:forces:R:3 energy=3.0420783928937194 pbc="F F F"
Cl       0.00000000       0.00000000       0.00000000       0.00000000       0.00000000     -37.04684448
Cl       0.00000000       0.00000000       1.47333333       0.00000000       0.00000000      37.04684448
2
Properties=species:S:1:pos:R:3:forces:R:3 energy=1.1741990658241344 pbc="F F F"
Cl       0.00000000       0.00000000       0.00000000       0.00000000       0.00000000     -26.98418045
Cl       0.00000000       0.00000000       1.53212121       0.00000000       0.00000000      26.98418045
2
Properties=species:S:1:pos:R:3:forces:R:3 energy=-0.17960088576763195 pbc="F F F"
Cl       0.00000000       0.00000000       0.00000000       0.00000000       0.00000000     -19.42907906
Cl       0.00000000       0.00000000       1.59090909       0.00000000       0.00000000      19.42907906
2
Properties=species:S:1:pos:R:3:forces:R:3 energy=-1.1460125679428765 pbc="F F F"
Cl       0.00000000       0.00000000       0.00000000       0.00000000       0.00000000     -13.70795345
Cl       0.00000000       0.00000000       1.64969697       0.00000000       0.00000000      13.70795345
2
Properties=species:S:1:pos:R:3:forces:R:3 energy=-1.817471851083591 pbc="F F F"
Cl       0.00000000       0.00000000       0.00000000       0.00000000       0.00000000      -9.32638073
Cl       0.00000000       0.00000000       1.70848485       0.00000000       0.00000000       9.32638073
2
Properties=species:S:1:pos:R:3:forces:R:3 energy=-2.2620140664065107 pbc="F F F"
Cl       0.00000000       0.00000000       0.00000000       0.00000000       0.00000000      -5.94062948
Cl       0.00000000       0.00000000       1.76727273       0.00000000       0.00000000       5.94062948
2
Properties=species:S:1:pos:R:3:forces:R:3 energy=-2.530741171906421 pbc="F F F"
Cl       0.00000000       0.00000000       0.00000000       0.00000000       0.00000000      -3.31207991
Cl       0.00000000       0.00000000       1.82606061       0.00000000       0.00000000       3.31207991
2
Properties=species:S:1:pos:R:3:forces:R:3 energy=-2.662979555928549 pbc="F F F"
Cl       0.00000000       0.00000000       0.00000000       0.00000000       0.00000000      -1.27442324
Cl       0.00000000       0.00000000       1.88484848       0.00000000       0.00000000       1.27442324
2
Properties=species:S:1:pos:R:3:forces:R:3 energy=-2.689932346039244 pbc="F F F"
Cl       0.00000000       0.00000000       0.00000000       0.00000000       0.00000000       0.28486624
Cl       0.00000000       0.00000000       1.94363636       0.00000000       0.00000000      -0.28486624
2
Properties=species:S:1:pos:R:3:forces:R:3 energy=-2.6373781006010493 pbc="F F F"
Cl       0.00000000       0.00000000       0.00000000       0.00000000       0.00000000       1.44068873
Cl       0.00000000       0.00000000       2.00242424       0.00000000       0.00000000      -1.44068873
2
Properties=species:S:1:pos:R:3:forces:R:3 energy=-2.5273890724653545 pbc="F F F"
Cl       0.00000000       0.00000000       0.00000000       0.00000000       0.00000000       2.24693704
Cl       0.00000000       0.00000000       2.06121212       0.00000000       0.00000000      -2.24693704
2
Properties=species:S:1:pos:R:3:forces:R:3 energy=-2.37913782971065 pbc="F F F"
Cl       0.00000000       0.00000000       0.00000000       0.00000000       0.00000000       2.74971175
Cl       0.00000000       0.00000000       2.12000000       0.00000000       0.00000000      -2.74971175
2
Properties=species:S:1:pos:R:3:forces:R:3 energy=-2.2091721839424525 pbc="F F F"
Cl       0.00000000       0.00000000       0.00000000       0.00000000       0.00000000       2.99320197
Cl       0.00000000       0.00000000       2.17878788       0.00000000       0.00000000      -2.99320197
2
Properties=species:S:1:pos:R:3:forces:R:3 energy=-2.0313783336160314 pbc="F F F"
Cl       0.00000000       0.00000000       0.00000000       0.00000000       0.00000000       3.02413988
Cl       0.00000000       0.00000000       2.23757576       0.00000000       0.00000000      -3.02413988
2
Properties=species:S:1:pos:R:3:forces:R:3 energy=-1.8568153975427724 pbc="F F F"
Cl       0.00000000       0.00000000       0.00000000       0.00000000       0.00000000       2.89131093
Cl       0.00000000       0.00000000       2.29636364       0.00000000       0.00000000      -2.89131093
2
Properties=species:S:1:pos:R:3:forces:R:3 energy=-1.6937353770305419 pbc="F F F"
Cl       0.00000000       0.00000000       0.00000000       0.00000000       0.00000000       2.64053845
Cl       0.00000000       0.00000000       2.35515152       0.00000000       0.00000000      -2.64053845
2
Properties=species:S:1:pos:R:3:forces:R:3 energy=-1.5479044616050908 pbc="F F F"
Cl       0.00000000       0.00000000       0.00000000       0.00000000       0.00000000       2.31018949
Cl       0.00000000       0.00000000       2.41393939       0.00000000       0.00000000      -2.31018949
2
Properties=species:S:1:pos:R:3:forces:R:3 energy=-1.4230456691174522 pbc="F F F"
Cl       0.00000000       0.00000000       0.00000000       0.00000000       0.00000000       1.93219233
Cl       0.00000000       0.00000000       2.47272727       0.00000000       0.00000000      -1.93219233
2
Properties=species:S:1:pos:R:3:forces:R:3 energy=-1.3210624150149544 pbc="F F F"
Cl       0.00000000       0.00000000       0.00000000       0.00000000       0.00000000       1.53716993
Cl       0.00000000       0.00000000       2.53151515       0.00000000       0.00000000      -1.53716993
2
Properties=species:S:1:pos:R:3:forces:R:3 energy=-1.2420129840013079 pbc="F F F"
Cl       0.00000000       0.00000000       0.00000000       0.00000000       0.00000000       1.15736866
Cl       0.00000000       0.00000000       2.59030303       0.00000000       0.00000000      -1.15736866
2
Properties=species:S:1:pos:R:3:forces:R:3 energy=-1.184082428720371 pbc="F F F"
Cl       0.00000000       0.00000000       0.00000000       0.00000000       0.00000000       0.82318825
Cl       0.00000000       0.00000000       2.64909091       0.00000000       0.00000000      -0.82318825
2
Properties=species:S:1:pos:R:3:forces:R:3 energy=-1.1439038726457644 pbc="F F F"
Cl       0.00000000       0.00000000       0.00000000       0.00000000       0.00000000       0.55597091
Cl       0.00000000       0.00000000       2.70787879       0.00000000       0.00000000      -0.55597091
2
Properties=species:S:1:pos:R:3:forces:R:3 energy=-1.117244878344149 pbc="F F F"
Cl       0.00000000       0.00000000       0.00000000       0.00000000       0.00000000       0.36330879
Cl       0.00000000       0.00000000       2.76666667       0.00000000       0.00000000      -0.36330879
2
Properties=species:S:1:pos:R:3:forces:R:3 energy=-1.0998221201616472 pbc="F F F"
Cl       0.00000000       0.00000000       0.00000000       0.00000000       0.00000000       0.24003722
Cl       0.00000000       0.00000000       2.82545455       0.00000000       0.00000000      -0.24003722
2
Properties=species:S:1:pos:R:3:forces:R:3 energy=-1.087923606860314 pbc="F F F"
Cl       0.00000000       0.00000000       0.00000000       0.00000000       0.00000000       0.17274459
Cl       0.00000000       0.00000000       2.88424242       0.00000000       0.00000000      -0.17274459
2
Properties=species:S:1:pos:R:3:forces:R:3 energy=-1.078736771196256 pbc="F F F"
Cl       0.00000000       0.00000000       0.00000000       0.00000000       0.00000000       0.14506698
Cl       0.00000000       0.00000000       2.94303030       0.00000000       0.00000000      -0.14506698
2
Properties=species:S:1:pos:R:3:forces:R:3 energy=-1.0703907062619022 pbc="F F F"
Cl       0.00000000       0.00000000       0.00000000       0.00000000       0.00000000       0.14183004
Cl       0.00000000       0.00000000       3.00181818       0.00000000       0.00000000      -0.14183004
2
Properties=species:S:1:pos:R:3:forces:R:3 energy=-1.0618160227189748 pbc="F F F"
Cl       0.00000000       0.00000000       0.00000000       0.00000000       0.00000000       0.15121606
Cl       0.00000000       0.00000000       3.06060606       0.00000000       0.00000000      -0.15121606
2
Properties=species:S:1:pos:R:3:forces:R:3 energy=-1.052523888884747 pbc="F F F"
Cl       0.00000000       0.00000000       0.00000000       0.00000000       0.00000000       0.16518173
Cl       0.00000000       0.00000000       3.11939394       0.00000000       0.00000000      -0.16518173
2
Properties=species:S:1:pos:R:3:forces:R:3 energy=-1.0424003752047526 pbc="F F F"
Cl       0.00000000       0.00000000       0.00000000       0.00000000       0.00000000       0.17891349
Cl       0.00000000       0.00000000       3.17818182       0.00000000       0.00000000      -0.17891349
2
Properties=species:S:1:pos:R:3:forces:R:3 energy=-1.0315410558673237 pbc="F F F"
Cl       0.00000000       0.00000000       0.00000000       0.00000000       0.00000000       0.18997291
Cl       0.00000000       0.00000000       3.23696970       0.00000000       0.00000000      -0.18997291
2
Properties=species:S:1:pos:R:3:forces:R:3 energy=-1.0201340783297839 pbc="F F F"
Cl       0.00000000       0.00000000       0.00000000       0.00000000       0.00000000       0.19750926
Cl       0.00000000       0.00000000       3.29575758       0.00000000       0.00000000      -0.19750926
2
Properties=species:S:1:pos:R:3:forces:R:3 energy=-1.0083858242390993 pbc="F F F"
Cl       0.00000000       0.00000000       0.00000000       0.00000000       0.00000000       0.20164360
Cl       0.00000000       0.00000000       3.35454545       0.00000000       0.00000000      -0.20164360
2
Properties=species:S:1:pos:R:3:forces:R:3 energy=-0.9964796630176944 pbc="F F F"
Cl       0.00000000       0.00000000       0.00000000       0.00000000       0.00000000       0.20302823
Cl       0.00000000       0.00000000       3.41333333       0.00000000       0.00000000      -0.20302823
2
Properties=species:S:1:pos:R:3:forces:R:3 energy=-0.984551385246339 pbc="F F F"
Cl       0.00000000       0.00000000       0.00000000       0.00000000       0.00000000       0.20252837
Cl       0.00000000       0.00000000       3.47212121       0.00000000       0.00000000      -0.20252837
2
Properties=species:S:1:pos:R:3:forces:R:3 energy=-0.9726870335542281 pbc="F F F"
Cl       0.00000000       0.00000000       0.00000000       0.00000000       0.00000000       0.20100459
Cl       0.00000000       0.00000000       3.53090909       0.00000000       0.00000000      -0.20100459
2
Properties=species:S:1:pos:R:3:forces:R:3 energy=-0.9609244048224141 pbc="F F F"
Cl       0.00000000       0.00000000       0.00000000       0.00000000       0.00000000       0.19917034
Cl       0.00000000       0.00000000       3.58969697       0.00000000       0.00000000      -0.19917034
2
Properties=species:S:1:pos:R:3:forces:R:3 energy=-0.9492657758994381 pbc="F F F"
Cl       0.00000000       0.00000000       0.00000000       0.00000000       0.00000000       0.19750647
Cl       0.00000000       0.00000000       3.64848485       0.00000000       0.00000000      -0.19750647
2
Properties=species:S:1:pos:R:3:forces:R:3 energy=-0.9376945137063118 pbc="F F F"
Cl       0.00000000       0.00000000       0.00000000       0.00000000       0.00000000       0.19623613
Cl       0.00000000       0.00000000       3.70727273       0.00000000       0.00000000      -0.19623613
2
Properties=species:S:1:pos:R:3:forces:R:3 energy=-0.9261859906380515 pbc="F F F"
Cl       0.00000000       0.00000000       0.00000000       0.00000000       0.00000000       0.19534183
Cl       0.00000000       0.00000000       3.76606061       0.00000000       0.00000000      -0.19534183
2
Properties=species:S:1:pos:R:3:forces:R:3 energy=-0.914723485748567 pbc="F F F"
Cl       0.00000000       0.00000000       0.00000000       0.00000000       0.00000000       0.19462380
Cl       0.00000000       0.00000000       3.82484848       0.00000000       0.00000000      -0.19462380
2
Properties=species:S:1:pos:R:3:forces:R:3 energy=-0.9033050755467494 pbc="F F F"
Cl       0.00000000       0.00000000       0.00000000       0.00000000       0.00000000       0.19379413
Cl       0.00000000       0.00000000       3.88363636       0.00000000       0.00000000      -0.19379413
2
Properties=species:S:1:pos:R:3:forces:R:3 energy=-0.8919458657108398 pbc="F F F"
Cl       0.00000000       0.00000000       0.00000000       0.00000000       0.00000000       0.19257255
Cl       0.00000000       0.00000000       3.94242424       0.00000000       0.00000000      -0.19257255
2
Properties=species:S:1:pos:R:3:forces:R:3 energy=-0.8806746829466352 pbc="F F F"
Cl       0.00000000       0.00000000       0.00000000       0.00000000       0.00000000       0.19077975
Cl       0.00000000       0.00000000       4.00121212       0.00000000       0.00000000      -0.19077975
2
Properties=species:S:1:pos:R:3:forces:R:3 energy=-0.8695265188688264 pbc="F F F"
Cl       0.00000000       0.00000000       0.00000000       0.00000000       0.00000000       0.18838474
Cl       0.00000000       0.00000000       4.06000000       0.00000000       0.00000000      -0.18838474
2
Properties=species:S:1:pos:R:3:forces:R:3 energy=-0.858534324358907 pbc="F F F"
Cl       0.00000000       0.00000000       0.00000000       0.00000000       0.00000000       0.18551749
Cl       0.00000000       0.00000000       4.11878788       0.00000000       0.00000000      -0.18551749
2
Properties=species:S:1:pos:R:3:forces:R:3 energy=-0.8477182585543589 pbc="F F F"
Cl       0.00000000       0.00000000       0.00000000       0.00000000       0.00000000       0.18243398
Cl       0.00000000       0.00000000       4.17757576       0.00000000       0.00000000      -0.18243398
2
Properties=species:S:1:pos:R:3:forces:R:3 energy=-0.8370823652437447 pbc="F F F"
Cl       0.00000000       0.00000000       0.00000000       0.00000000       0.00000000       0.17945142
Cl       0.00000000       0.00000000       4.23636364       0.00000000       0.00000000      -0.17945142
2
Properties=species:S:1:pos:R:3:forces:R:3 energy=-0.8266110504409973 pbc="F F F"
Cl       0.00000000       0.00000000       0.00000000       0.00000000       0.00000000       0.17687558
Cl       0.00000000       0.00000000       4.29515152       0.00000000       0.00000000      -0.17687558
2
Properties=species:S:1:pos:R:3:forces:R:3 energy=-0.8162737861926449 pbc="F F F"
Cl       0.00000000       0.00000000       0.00000000       0.00000000       0.00000000       0.17494169
Cl       0.00000000       0.00000000       4.35393939       0.00000000       0.00000000      -0.17494169
2
Properties=species:S:1:pos:R:3:forces:R:3 energy=-0.8060274947636015 pbc="F F F"
Cl       0.00000000       0.00000000       0.00000000       0.00000000       0.00000000       0.17376764
Cl       0.00000000       0.00000000       4.41272727       0.00000000       0.00000000      -0.17376764
2
Properties=species:S:1:pos:R:3:forces:R:3 energy=-0.7958283166787415 pbc="F F F"
Cl       0.00000000       0.00000000       0.00000000       0.00000000       0.00000000       0.17331910
Cl       0.00000000       0.00000000       4.47151515       0.00000000       0.00000000      -0.17331910
2
Properties=species:S:1:pos:R:3:forces:R:3 energy=-0.7856389935713164 pbc="F F F"
Cl       0.00000000       0.00000000       0.00000000       0.00000000       0.00000000       0.17338386
Cl       0.00000000       0.00000000       4.53030303       0.00000000       0.00000000      -0.17338386
2
Properties=species:S:1:pos:R:3:forces:R:3 energy=-0.775440530686463 pbc="F F F"
Cl       0.00000000       0.00000000       0.00000000       0.00000000       0.00000000       0.17355077
Cl       0.00000000       0.00000000       4.58909091       0.00000000       0.00000000      -0.17355077
2
Properties=species:S:1:pos:R:3:forces:R:3 energy=-0.7652431966060196 pbc="F F F"
Cl       0.00000000       0.00000000       0.00000000       0.00000000       0.00000000       0.17323296
Cl       0.00000000       0.00000000       4.64787879       0.00000000       0.00000000      -0.17323296
2
Properties=species:S:1:pos:R:3:forces:R:3 energy=-0.7550954724487727 pbc="F F F"
Cl       0.00000000       0.00000000       0.00000000       0.00000000       0.00000000       0.17174397
Cl       0.00000000       0.00000000       4.70666667       0.00000000       0.00000000      -0.17174397
2
Properties=species:S:1:pos:R:3:forces:R:3 energy=-0.7450854982210434 pbc="F F F"
Cl       0.00000000       0.00000000       0.00000000       0.00000000       0.00000000       0.16846758
Cl       0.00000000       0.00000000       4.76545455       0.00000000       0.00000000      -0.16846758
2
Properties=species:S:1:pos:R:3:forces:R:3 energy=-0.735328471478038 pbc="F F F"
Cl       0.00000000       0.00000000       0.00000000       0.00000000       0.00000000       0.16312303
Cl       0.00000000       0.00000000       4.82424242       0.00000000       0.00000000      -0.16312303
2
Properties=species:S:1:pos:R:3:forces:R:3 energy=-0.7259411149451054 pbc="F F F"
Cl       0.00000000       0.00000000       0.00000000       0.00000000       0.00000000       0.15605831
Cl       0.00000000       0.00000000       4.88303030       0.00000000       0.00000000      -0.15605831
2
Properties=species:S:1:pos:R:3:forces:R:3 energy=-0.7169897565163821 pbc="F F F"
Cl       0.00000000       0.00000000       0.00000000       0.00000000       0.00000000       0.14852184
Cl       0.00000000       0.00000000       4.94181818       0.00000000       0.00000000      -0.14852184
2
Properties=species:S:1:pos:R:3:forces:R:3 energy=-0.7084431055370842 pbc="F F F"
Cl       0.00000000       0.00000000       0.00000000       0.00000000       0.00000000       0.14275977
Cl       0.00000000       0.00000000       5.00060606       0.00000000       0.00000000      -0.14275977
2
Properties=species:S:1:pos:R:3:forces:R:3 energy=-0.7001106903129439 pbc="F F F"
Cl       0.00000000       0.00000000       0.00000000       0.00000000       0.00000000       0.14177817
Cl       0.00000000       0.00000000       5.05939394       0.00000000       0.00000000      -0.14177817
2
Properties=species:S:1:pos:R:3:forces:R:3 energy=-0.6916199095300142 pbc="F F F"
Cl       0.00000000       0.00000000       0.00000000       0.00000000       0.00000000       0.14858718
Cl       0.00000000       0.00000000       5.11818182       0.00000000       0.00000000      -0.14858718
2
Properties=species:S:1:pos:R:3:forces:R:3 energy=-0.6824541390255922 pbc="F F F"
Cl       0.00000000       0.00000000       0.00000000       0.00000000       0.00000000       0.16483167
Cl       0.00000000       0.00000000       5.17696970       0.00000000       0.00000000      -0.16483167
2
Properties=species:S:1:pos:R:3:forces:R:3 energy=-0.6720827899150734 pbc="F F F"
Cl       0.00000000       0.00000000       0.00000000       0.00000000       0.00000000       0.18897018
Cl       0.00000000       0.00000000       5.23575758       0.00000000       0.00000000      -0.18897018
2
Properties=species:S:1:pos:R:3:forces:R:3 energy=-0.6602026551242374 pbc="F F F"
Cl       0.00000000       0.00000000       0.00000000       0.00000000       0.00000000       0.21469142
Cl       0.00000000       0.00000000       5.29454545       0.00000000       0.00000000      -0.21469142
2
Properties=species:S:1:pos:R:3:forces:R:3 energy=-0.6470035096662543 pbc="F F F"
Cl       0.00000000       0.00000000       0.00000000       0.00000000       0.00000000       0.23219550
Cl       0.00000000       0.00000000       5.35333333       0.00000000       0.00000000      -0.23219550
2
Properties=species:S:1:pos:R:3:forces:R:3 energy=-0.6331499288491628 pbc="F F F"
Cl       0.00000000       0.00000000       0.00000000       0.00000000       0.00000000       0.23777844
Cl       0.00000000       0.00000000       5.41212121       0.00000000       0.00000000      -0.23777844
2
Properties=species:S:1:pos:R:3:forces:R:3 energy=-0.6189707276814024 pbc="F F F"
Cl       0.00000000       0.00000000       0.00000000       0.00000000       0.00000000       0.24726079
Cl       0.00000000       0.00000000       5.47090909       0.00000000       0.00000000      -0.24726079
2
Properties=species:S:1:pos:R:3:forces:R:3 energy=-0.6037776795840417 pbc="F F F"
Cl       0.00000000       0.00000000       0.00000000       0.00000000       0.00000000       0.26973784
Cl       0.00000000       0.00000000       5.52969697       0.00000000       0.00000000      -0.26973784
2
Properties=species:S:1:pos:R:3:forces:R:3 energy=-0.5877009186535477 pbc="F F F"
Cl       0.00000000       0.00000000       0.00000000       0.00000000       0.00000000       0.27078113
Cl       0.00000000       0.00000000       5.58848485       0.00000000       0.00000000      -0.27078113
2
Properties=species:S:1:pos:R:3:forces:R:3 energy=-0.5726183582535787 pbc="F F F"
Cl       0.00000000       0.00000000       0.00000000       0.00000000       0.00000000       0.23901440
Cl       0.00000000       0.00000000       5.64727273       0.00000000       0.00000000      -0.23901440
2
Properties=species:S:1:pos:R:3:forces:R:3 energy=-0.5595410053511117 pbc="F F F"
Cl       0.00000000       0.00000000       0.00000000       0.00000000       0.00000000       0.21074134
Cl       0.00000000       0.00000000       5.70606061       0.00000000       0.00000000      -0.21074134
2
Properties=species:S:1:pos:R:3:forces:R:3 energy=-0.5470309352227477 pbc="F F F"
Cl       0.00000000       0.00000000       0.00000000       0.00000000       0.00000000       0.21900032
Cl       0.00000000       0.00000000       5.76484848       0.00000000       0.00000000      -0.21900032
2
Properties=species:S:1:pos:R:3:forces:R:3 energy=-0.5341060087663164 pbc="F F F"
Cl       0.00000000       0.00000000       0.00000000       0.00000000       0.00000000       0.21089604
Cl       0.00000000       0.00000000       5.82363636       0.00000000       0.00000000      -0.21089604
2
Properties=species:S:1:pos:R:3:forces:R:3 energy=-0.5237575432895147 pbc="F F F"
Cl       0.00000000       0.00000000       0.00000000       0.00000000       0.00000000       0.13245751
Cl       0.00000000       0.00000000       5.88242424       0.00000000       0.00000000      -0.13245751
2
Properties=species:S:1:pos:R:3:forces:R:3 energy=-0.5188061308653956 pbc="F F F"
Cl       0.00000000       0.00000000       0.00000000       0.00000000       0.00000000       0.03966860
Cl       0.00000000       0.00000000       5.94121212       0.00000000       0.00000000      -0.03966860
2
Properties=species:S:1:pos:R:3:forces:R:3 energy=-0.5179685592136144 pbc="F F F"
Cl       0.00000000       0.00000000       0.00000000       0.00000000       0.00000000       0.00142215
Cl       0.00000000       0.00000000       6.00000000       0.00000000       0.00000000      -0.00142215
