2
Properties=species:S:1:pos:R:3:forces:R:3 energy=3930.0976377952984 pbc="F F F"
Co       0.00000000       0.00000000       0.00000000       0.00000000       0.00000000  -55879.12500000
Co       0.00000000       0.00000000       0.18000000       0.00000000       0.00000000   55879.12500000
2
Properties=species:S:1:pos:R:3:forces:R:3 energy=1894.7751280296736 pbc="F F F"
Co       0.00000000       0.00000000       0.00000000       0.00000000       0.00000000  -20421.15429688
Co       0.00000000       0.00000000       0.23878788       0.00000000       0.00000000   20421.15429688
2
Properties=species:S:1:pos:R:3:forces:R:3 energy=1089.0549131890914 pbc="F F F"
Co       0.00000000       0.00000000       0.00000000       0.00000000       0.00000000   -8910.47460938
Co       0.00000000       0.00000000       0.29757576       0.00000000       0.00000000    8910.47460938
2
Properties=species:S:1:pos:R:3:forces:R:3 energy=713.9261900445601 pbc="F F F"
Co       0.00000000       0.00000000       0.00000000       0.00000000       0.00000000   -4505.74365234
Co       0.00000000       0.00000000       0.35636364       0.00000000       0.00000000    4505.74365234
2
Properties=species:S:1:pos:R:3:forces:R:3 energy=510.35319200402074 pbc="F F F"
Co       0.00000000       0.00000000       0.00000000       0.00000000       0.00000000   -2679.98559570
Co       0.00000000       0.00000000       0.41515152       0.00000000       0.00000000    2679.98559570
2
Properties=species:S:1:pos:R:3:forces:R:3 energy=378.59000842294205 pbc="F F F"
Co       0.00000000       0.00000000       0.00000000       0.00000000       0.00000000   -1911.21716309
Co       0.00000000       0.00000000       0.47393939       0.00000000       0.00000000    1911.21716309
2
Properties=species:S:1:pos:R:3:forces:R:3 energy=277.71458120219086 pbc="F F F"
Co       0.00000000       0.00000000       0.00000000       0.00000000       0.00000000   -1556.73132324
Co       0.00000000       0.00000000       0.53272727       0.00000000       0.00000000    1556.73132324
2
Properties=species:S:1:pos:R:3:forces:R:3 energy=193.70066522457975 pbc="F F F"
Co       0.00000000       0.00000000       0.00000000       0.00000000       0.00000000   -1302.59973145
Co       0.00000000       0.00000000       0.59151515       0.00000000       0.00000000    1302.59973145
2
Properties=species:S:1:pos:R:3:forces:R:3 energy=125.64918976936949 pbc="F F F"
Co       0.00000000       0.00000000       0.00000000       0.00000000       0.00000000    -996.92816162
Co       0.00000000       0.00000000       0.65030303       0.00000000       0.00000000     996.92816162
2
Properties=species:S:1:pos:R:3:forces:R:3 energy=78.42076580164199 pbc="F F F"
Co       0.00000000       0.00000000       0.00000000       0.00000000       0.00000000    -593.49523926
Co       0.00000000       0.00000000       0.70909091       0.00000000       0.00000000     593.49523926
2
Properties=species:S:1:pos:R:3:forces:R:3 energy=52.38589200079857 pbc="F F F"
Co       0.00000000       0.00000000       0.00000000       0.00000000       0.00000000    -370.06439209
Co       0.00000000       0.00000000       0.76787879       0.00000000       0.00000000     370.06439209
2
Properties=species:S:1:pos:R:3:forces:R:3 energy=33.92551549888328 pbc="F F F"
Co       0.00000000       0.00000000       0.00000000       0.00000000       0.00000000    -254.04814148
Co       0.00000000       0.00000000       0.82666667       0.00000000       0.00000000     254.04814148
2
Properties=species:S:1:pos:R:3:forces:R:3 energy=22.02045984125221 pbc="F F F"
Co       0.00000000       0.00000000       0.00000000       0.00000000       0.00000000    -157.49284363
Co       0.00000000       0.00000000       0.88545455       0.00000000       0.00000000     157.49284363
2
Properties=species:S:1:pos:R:3:forces:R:3 energy=14.798402023389745 pbc="F F F"
Co       0.00000000       0.00000000       0.00000000       0.00000000       0.00000000     -93.03777313
Co       0.00000000       0.00000000       0.94424242       0.00000000       0.00000000      93.03777313
2
Properties=species:S:1:pos:R:3:forces:R:3 energy=10.522751704208371 pbc="F F F"
Co       0.00000000       0.00000000       0.00000000       0.00000000       0.00000000     -56.42794800
Co       0.00000000       0.00000000       1.00303030       0.00000000       0.00000000      56.42794800
2
Properties=species:S:1:pos:R:3:forces:R:3 energy=7.826536961620937 pbc="F F F"
Co       0.00000000       0.00000000       0.00000000       0.00000000       0.00000000     -37.23907089
Co       0.00000000       0.00000000       1.06181818       0.00000000       0.00000000      37.23907089
2
Properties=species:S:1:pos:R:3:forces:R:3 energy=5.966143662206537 pbc="F F F"
Co       0.00000000       0.00000000       0.00000000       0.00000000       0.00000000     -27.37330818
Co       0.00000000       0.00000000       1.12060606       0.00000000       0.00000000      27.37330818
2
Properties=species:S:1:pos:R:3:forces:R:3 energy=4.475635218058482 pbc="F F F"
Co       0.00000000       0.00000000       0.00000000       0.00000000       0.00000000     -24.16470909
Co       0.00000000       0.00000000       1.17939394       0.00000000       0.00000000      24.16470909
2
Properties=species:S:1:pos:R:3:forces:R:3 energy=3.067210452159238 pbc="F F F"
Co       0.00000000       0.00000000       0.00000000       0.00000000       0.00000000     -23.95778847
Co       0.00000000       0.00000000       1.23818182       0.00000000       0.00000000      23.95778847
2
Properties=species:S:1:pos:R:3:forces:R:3 energy=1.651676124930725 pbc="F F F"
Co       0.00000000       0.00000000       0.00000000       0.00000000       0.00000000     -24.18705750
Co       0.00000000       0.00000000       1.29696970       0.00000000       0.00000000      24.18705750
2
Properties=species:S:1:pos:R:3:forces:R:3 energy=0.23068315432059566 pbc="F F F"
Co       0.00000000       0.00000000       0.00000000       0.00000000       0.00000000     -24.02804947
Co       0.00000000       0.00000000       1.35575758       0.00000000       0.00000000      24.02804947
2
Properties=species:S:1:pos:R:3:forces:R:3 energy=-1.150297138384192 pbc="F F F"
Co       0.00000000       0.00000000       0.00000000       0.00000000       0.00000000     -22.71077728
Co       0.00000000       0.00000000       1.41454545       0.00000000       0.00000000      22.71077728
2
Properties=species:S:1:pos:R:3:forces:R:3 energy=-2.4114282610777833 pbc="F F F"
Co       0.00000000       0.00000000       0.00000000       0.00000000       0.00000000     -19.98727989
Co       0.00000000       0.00000000       1.47333333       0.00000000       0.00000000      19.98727989
2
Properties=species:S:1:pos:R:3:forces:R:3 energy=-3.482862811387207 pbc="F F F"
Co       0.00000000       0.00000000       0.00000000       0.00000000       0.00000000     -16.38011742
Co       0.00000000       0.00000000       1.53212121       0.00000000       0.00000000      16.38011742
2
Properties=species:S:1:pos:R:3:forces:R:3 energy=-4.335099160270347 pbc="F F F"
Co       0.00000000       0.00000000       0.00000000       0.00000000       0.00000000     -12.65241623
Co       0.00000000       0.00000000       1.59090909       0.00000000       0.00000000      12.65241623
2
Properties=species:S:1:pos:R:3:forces:R:3 energy=-4.9798009338542615 pbc="F F F"
Co       0.00000000       0.00000000       0.00000000       0.00000000       0.00000000      -9.38478279
Co       0.00000000       0.00000000       1.64969697       0.00000000       0.00000000       9.38478279
2
Properties=species:S:1:pos:R:3:forces:R:3 energy=-5.451249245577707 pbc="F F F"
Co       0.00000000       0.00000000       0.00000000       0.00000000       0.00000000      -6.75736475
Co       0.00000000       0.00000000       1.70848485       0.00000000       0.00000000       6.75736475
2
Properties=species:S:1:pos:R:3:forces:R:3 energy=-5.7850586156444015 pbc="F F F"
Co       0.00000000       0.00000000       0.00000000       0.00000000       0.00000000      -4.67824745
Co       0.00000000       0.00000000       1.76727273       0.00000000       0.00000000       4.67824745
2
Properties=species:S:1:pos:R:3:forces:R:3 energy=-6.00935910723244 pbc="F F F"
Co       0.00000000       0.00000000       0.00000000       0.00000000       0.00000000      -3.01240444
Co       0.00000000       0.00000000       1.82606061       0.00000000       0.00000000       3.01240444
2
Properties=species:S:1:pos:R:3:forces:R:3 energy=-6.145572992534994 pbc="F F F"
Co       0.00000000       0.00000000       0.00000000       0.00000000       0.00000000      -1.67096710
Co       0.00000000       0.00000000       1.88484848       0.00000000       0.00000000       1.67096710
2
Properties=species:S:1:pos:R:3:forces:R:3 energy=-6.211272020721344 pbc="F F F"
Co       0.00000000       0.00000000       0.00000000       0.00000000       0.00000000      -0.60809880
Co       0.00000000       0.00000000       1.94363636       0.00000000       0.00000000       0.60809880
2
Properties=species:S:1:pos:R:3:forces:R:3 energy=-6.22199236389987 pbc="F F F"
Co       0.00000000       0.00000000       0.00000000       0.00000000       0.00000000       0.20367700
Co       0.00000000       0.00000000       2.00242424       0.00000000       0.00000000      -0.20367700
2
Properties=species:S:1:pos:R:3:forces:R:3 energy=-6.191709624684541 pbc="F F F"
Co       0.00000000       0.00000000       0.00000000       0.00000000       0.00000000       0.79193467
Co       0.00000000       0.00000000       2.06121212       0.00000000       0.00000000      -0.79193467
2
Properties=species:S:1:pos:R:3:forces:R:3 energy=-6.132591681278028 pbc="F F F"
Co       0.00000000       0.00000000       0.00000000       0.00000000       0.00000000       1.19095218
Co       0.00000000       0.00000000       2.12000000       0.00000000       0.00000000      -1.19095218
2
Properties=species:S:1:pos:R:3:forces:R:3 energy=-6.054625562304399 pbc="F F F"
Co       0.00000000       0.00000000       0.00000000       0.00000000       0.00000000       1.43969834
Co       0.00000000       0.00000000       2.17878788       0.00000000       0.00000000      -1.43969834
2
Properties=species:S:1:pos:R:3:forces:R:3 energy=-5.965536794143526 pbc="F F F"
Co       0.00000000       0.00000000       0.00000000       0.00000000       0.00000000       1.57487738
Co       0.00000000       0.00000000       2.23757576       0.00000000       0.00000000      -1.57487738
2
Properties=species:S:1:pos:R:3:forces:R:3 energy=-5.871144256111733 pbc="F F F"
Co       0.00000000       0.00000000       0.00000000       0.00000000       0.00000000       1.62351847
Co       0.00000000       0.00000000       2.29636364       0.00000000       0.00000000      -1.62351847
2
Properties=species:S:1:pos:R:3:forces:R:3 energy=-5.776026107350932 pbc="F F F"
Co       0.00000000       0.00000000       0.00000000       0.00000000       0.00000000       1.60211182
Co       0.00000000       0.00000000       2.35515152       0.00000000       0.00000000      -1.60211182
2
Properties=species:S:1:pos:R:3:forces:R:3 energy=-5.683667791979818 pbc="F F F"
Co       0.00000000       0.00000000       0.00000000       0.00000000       0.00000000       1.53720009
Co       0.00000000       0.00000000       2.41393939       0.00000000       0.00000000      -1.53720009
2
Properties=species:S:1:pos:R:3:forces:R:3 energy=-5.594749326836903 pbc="F F F"
Co       0.00000000       0.00000000       0.00000000       0.00000000       0.00000000       1.49896526
Co       0.00000000       0.00000000       2.47272727       0.00000000       0.00000000      -1.49896526
2
Properties=species:S:1:pos:R:3:forces:R:3 energy=-5.506157196279384 pbc="F F F"
Co       0.00000000       0.00000000       0.00000000       0.00000000       0.00000000       1.52006626
Co       0.00000000       0.00000000       2.53151515       0.00000000       0.00000000      -1.52006626
2
Properties=species:S:1:pos:R:3:forces:R:3 energy=-5.4163265307627695 pbc="F F F"
Co       0.00000000       0.00000000       0.00000000       0.00000000       0.00000000       1.52869272
Co       0.00000000       0.00000000       2.59030303       0.00000000       0.00000000      -1.52869272
2
Properties=species:S:1:pos:R:3:forces:R:3 energy=-5.327299552637958 pbc="F F F"
Co       0.00000000       0.00000000       0.00000000       0.00000000       0.00000000       1.49410439
Co       0.00000000       0.00000000       2.64909091       0.00000000       0.00000000      -1.49410439
2
Properties=species:S:1:pos:R:3:forces:R:3 energy=-5.241113383777419 pbc="F F F"
Co       0.00000000       0.00000000       0.00000000       0.00000000       0.00000000       1.43584466
Co       0.00000000       0.00000000       2.70787879       0.00000000       0.00000000      -1.43584466
2
Properties=species:S:1:pos:R:3:forces:R:3 energy=-5.158606582785412 pbc="F F F"
Co       0.00000000       0.00000000       0.00000000       0.00000000       0.00000000       1.37074268
Co       0.00000000       0.00000000       2.76666667       0.00000000       0.00000000      -1.37074268
2
Properties=species:S:1:pos:R:3:forces:R:3 energy=-5.079933611913769 pbc="F F F"
Co       0.00000000       0.00000000       0.00000000       0.00000000       0.00000000       1.30617356
Co       0.00000000       0.00000000       2.82545455       0.00000000       0.00000000      -1.30617356
2
Properties=species:S:1:pos:R:3:forces:R:3 energy=-5.00497062700725 pbc="F F F"
Co       0.00000000       0.00000000       0.00000000       0.00000000       0.00000000       1.24469042
Co       0.00000000       0.00000000       2.88424242       0.00000000       0.00000000      -1.24469042
2
Properties=species:S:1:pos:R:3:forces:R:3 energy=-4.933521377675337 pbc="F F F"
Co       0.00000000       0.00000000       0.00000000       0.00000000       0.00000000       1.18657124
Co       0.00000000       0.00000000       2.94303030       0.00000000       0.00000000      -1.18657124
2
Properties=species:S:1:pos:R:3:forces:R:3 energy=-4.865408841307205 pbc="F F F"
Co       0.00000000       0.00000000       0.00000000       0.00000000       0.00000000       1.13098037
Co       0.00000000       0.00000000       3.00181818       0.00000000       0.00000000      -1.13098037
2
Properties=species:S:1:pos:R:3:forces:R:3 energy=-4.800518925765021 pbc="F F F"
Co       0.00000000       0.00000000       0.00000000       0.00000000       0.00000000       1.07676160
Co       0.00000000       0.00000000       3.06060606       0.00000000       0.00000000      -1.07676160
2
Properties=species:S:1:pos:R:3:forces:R:3 energy=-4.7387998621865295 pbc="F F F"
Co       0.00000000       0.00000000       0.00000000       0.00000000       0.00000000       1.02297568
Co       0.00000000       0.00000000       3.11939394       0.00000000       0.00000000      -1.02297568
2
Properties=species:S:1:pos:R:3:forces:R:3 energy=-4.680241532932828 pbc="F F F"
Co       0.00000000       0.00000000       0.00000000       0.00000000       0.00000000       0.96920002
Co       0.00000000       0.00000000       3.17818182       0.00000000       0.00000000      -0.96920002
2
Properties=species:S:1:pos:R:3:forces:R:3 energy=-4.6248429879769715 pbc="F F F"
Co       0.00000000       0.00000000       0.00000000       0.00000000       0.00000000       0.91554952
Co       0.00000000       0.00000000       3.23696970       0.00000000       0.00000000      -0.91554952
2
Properties=species:S:1:pos:R:3:forces:R:3 energy=-4.572582938020964 pbc="F F F"
Co       0.00000000       0.00000000       0.00000000       0.00000000       0.00000000       0.86252266
Co       0.00000000       0.00000000       3.29575758       0.00000000       0.00000000      -0.86252266
2
Properties=species:S:1:pos:R:3:forces:R:3 energy=-4.52340610361621 pbc="F F F"
Co       0.00000000       0.00000000       0.00000000       0.00000000       0.00000000       0.81076580
Co       0.00000000       0.00000000       3.35454545       0.00000000       0.00000000      -0.81076580
2
Properties=species:S:1:pos:R:3:forces:R:3 energy=-4.477219577864294 pbc="F F F"
Co       0.00000000       0.00000000       0.00000000       0.00000000       0.00000000       0.76088369
Co       0.00000000       0.00000000       3.41333333       0.00000000       0.00000000      -0.76088369
2
Properties=species:S:1:pos:R:3:forces:R:3 energy=-4.4338994577876765 pbc="F F F"
Co       0.00000000       0.00000000       0.00000000       0.00000000       0.00000000       0.71332276
Co       0.00000000       0.00000000       3.47212121       0.00000000       0.00000000      -0.71332276
2
Properties=species:S:1:pos:R:3:forces:R:3 energy=-4.393300062626814 pbc="F F F"
Co       0.00000000       0.00000000       0.00000000       0.00000000       0.00000000       0.66834080
Co       0.00000000       0.00000000       3.53090909       0.00000000       0.00000000      -0.66834080
2
Properties=species:S:1:pos:R:3:forces:R:3 energy=-4.355265981481999 pbc="F F F"
Co       0.00000000       0.00000000       0.00000000       0.00000000       0.00000000       0.62603080
Co       0.00000000       0.00000000       3.58969697       0.00000000       0.00000000      -0.62603080
2
Properties=species:S:1:pos:R:3:forces:R:3 energy=-4.319641591049589 pbc="F F F"
Co       0.00000000       0.00000000       0.00000000       0.00000000       0.00000000       0.58637273
Co       0.00000000       0.00000000       3.64848485       0.00000000       0.00000000      -0.58637273
2
Properties=species:S:1:pos:R:3:forces:R:3 energy=-4.286273121361748 pbc="F F F"
Co       0.00000000       0.00000000       0.00000000       0.00000000       0.00000000       0.54926109
Co       0.00000000       0.00000000       3.70727273       0.00000000       0.00000000      -0.54926109
2
Properties=species:S:1:pos:R:3:forces:R:3 energy=-4.255014829326925 pbc="F F F"
Co       0.00000000       0.00000000       0.00000000       0.00000000       0.00000000       0.51453859
Co       0.00000000       0.00000000       3.76606061       0.00000000       0.00000000      -0.51453859
2
Properties=species:S:1:pos:R:3:forces:R:3 energy=-4.225732940140009 pbc="F F F"
Co       0.00000000       0.00000000       0.00000000       0.00000000       0.00000000       0.48201171
Co       0.00000000       0.00000000       3.82484848       0.00000000       0.00000000      -0.48201171
2
Properties=species:S:1:pos:R:3:forces:R:3 energy=-4.19830307936285 pbc="F F F"
Co       0.00000000       0.00000000       0.00000000       0.00000000       0.00000000       0.45146111
Co       0.00000000       0.00000000       3.88363636       0.00000000       0.00000000      -0.45146111
2
Properties=species:S:1:pos:R:3:forces:R:3 energy=-4.17261760287967 pbc="F F F"
Co       0.00000000       0.00000000       0.00000000       0.00000000       0.00000000       0.42265806
Co       0.00000000       0.00000000       3.94242424       0.00000000       0.00000000      -0.42265806
2
Properties=species:S:1:pos:R:3:forces:R:3 energy=-4.148579703788776 pbc="F F F"
Co       0.00000000       0.00000000       0.00000000       0.00000000       0.00000000       0.39537659
Co       0.00000000       0.00000000       4.00121212       0.00000000       0.00000000      -0.39537659
2
Properties=species:S:1:pos:R:3:forces:R:3 energy=-4.126105212045235 pbc="F F F"
Co       0.00000000       0.00000000       0.00000000       0.00000000       0.00000000       0.36941123
Co       0.00000000       0.00000000       4.06000000       0.00000000       0.00000000      -0.36941123
2
Properties=species:S:1:pos:R:3:forces:R:3 energy=-4.10512305862674 pbc="F F F"
Co       0.00000000       0.00000000       0.00000000       0.00000000       0.00000000       0.34459794
Co       0.00000000       0.00000000       4.11878788       0.00000000       0.00000000      -0.34459794
2
Properties=species:S:1:pos:R:3:forces:R:3 energy=-4.085568823224789 pbc="F F F"
Co       0.00000000       0.00000000       0.00000000       0.00000000       0.00000000       0.32081860
Co       0.00000000       0.00000000       4.17757576       0.00000000       0.00000000      -0.32081860
2
Properties=species:S:1:pos:R:3:forces:R:3 energy=-4.067383240376765 pbc="F F F"
Co       0.00000000       0.00000000       0.00000000       0.00000000       0.00000000       0.29801151
Co       0.00000000       0.00000000       4.23636364       0.00000000       0.00000000      -0.29801151
2
Properties=species:S:1:pos:R:3:forces:R:3 energy=-4.0505104965217535 pbc="F F F"
Co       0.00000000       0.00000000       0.00000000       0.00000000       0.00000000       0.27616966
Co       0.00000000       0.00000000       4.29515152       0.00000000       0.00000000      -0.27616966
2
Properties=species:S:1:pos:R:3:forces:R:3 energy=-4.03489299112745 pbc="F F F"
Co       0.00000000       0.00000000       0.00000000       0.00000000       0.00000000       0.25533104
Co       0.00000000       0.00000000       4.35393939       0.00000000       0.00000000      -0.25533104
2
Properties=species:S:1:pos:R:3:forces:R:3 energy=-4.020469249607581 pbc="F F F"
Co       0.00000000       0.00000000       0.00000000       0.00000000       0.00000000       0.23555520
Co       0.00000000       0.00000000       4.41272727       0.00000000       0.00000000      -0.23555520
2
Properties=species:S:1:pos:R:3:forces:R:3 energy=-4.007175200945999 pbc="F F F"
Co       0.00000000       0.00000000       0.00000000       0.00000000       0.00000000       0.21690375
Co       0.00000000       0.00000000       4.47151515       0.00000000       0.00000000      -0.21690375
2
Properties=species:S:1:pos:R:3:forces:R:3 energy=-3.9949436129924187 pbc="F F F"
Co       0.00000000       0.00000000       0.00000000       0.00000000       0.00000000       0.19941062
Co       0.00000000       0.00000000       4.53030303       0.00000000       0.00000000      -0.19941062
2
Properties=species:S:1:pos:R:3:forces:R:3 energy=-3.98370716022573 pbc="F F F"
Co       0.00000000       0.00000000       0.00000000       0.00000000       0.00000000       0.18304563
Co       0.00000000       0.00000000       4.58909091       0.00000000       0.00000000      -0.18304563
2
Properties=species:S:1:pos:R:3:forces:R:3 energy=-3.973401936676235 pbc="F F F"
Co       0.00000000       0.00000000       0.00000000       0.00000000       0.00000000       0.16770917
Co       0.00000000       0.00000000       4.64787879       0.00000000       0.00000000      -0.16770917
2
Properties=species:S:1:pos:R:3:forces:R:3 energy=-3.9639718148162606 pbc="F F F"
Co       0.00000000       0.00000000       0.00000000       0.00000000       0.00000000       0.15323134
Co       0.00000000       0.00000000       4.70666667       0.00000000       0.00000000      -0.15323134
2
Properties=species:S:1:pos:R:3:forces:R:3 energy=-3.9553727624371535 pbc="F F F"
Co       0.00000000       0.00000000       0.00000000       0.00000000       0.00000000       0.13941903
Co       0.00000000       0.00000000       4.76545455       0.00000000       0.00000000      -0.13941903
2
Properties=species:S:1:pos:R:3:forces:R:3 energy=-3.947569266370599 pbc="F F F"
Co       0.00000000       0.00000000       0.00000000       0.00000000       0.00000000       0.12611304
Co       0.00000000       0.00000000       4.82424242       0.00000000       0.00000000      -0.12611304
2
Properties=species:S:1:pos:R:3:forces:R:3 energy=-3.9405357534966274 pbc="F F F"
Co       0.00000000       0.00000000       0.00000000       0.00000000       0.00000000       0.11328644
Co       0.00000000       0.00000000       4.88303030       0.00000000       0.00000000      -0.11328644
2
Properties=species:S:1:pos:R:3:forces:R:3 energy=-3.9342375109216405 pbc="F F F"
Co       0.00000000       0.00000000       0.00000000       0.00000000       0.00000000       0.10109866
Co       0.00000000       0.00000000       4.94181818       0.00000000       0.00000000      -0.10109866
2
Properties=species:S:1:pos:R:3:forces:R:3 energy=-3.9286288356505783 pbc="F F F"
Co       0.00000000       0.00000000       0.00000000       0.00000000       0.00000000       0.08993253
Co       0.00000000       0.00000000       5.00060606       0.00000000       0.00000000      -0.08993253
2
Properties=species:S:1:pos:R:3:forces:R:3 energy=-3.9236333662220955 pbc="F F F"
Co       0.00000000       0.00000000       0.00000000       0.00000000       0.00000000       0.08030157
Co       0.00000000       0.00000000       5.05939394       0.00000000       0.00000000      -0.08030157
2
Properties=species:S:1:pos:R:3:forces:R:3 energy=-3.9191480946427175 pbc="F F F"
Co       0.00000000       0.00000000       0.00000000       0.00000000       0.00000000       0.07265361
Co       0.00000000       0.00000000       5.11818182       0.00000000       0.00000000      -0.07265361
2
Properties=species:S:1:pos:R:3:forces:R:3 energy=-3.915050648824922 pbc="F F F"
Co       0.00000000       0.00000000       0.00000000       0.00000000       0.00000000       0.06706032
Co       0.00000000       0.00000000       5.17696970       0.00000000       0.00000000      -0.06706032
2
Properties=species:S:1:pos:R:3:forces:R:3 energy=-3.9112351409052035 pbc="F F F"
Co       0.00000000       0.00000000       0.00000000       0.00000000       0.00000000       0.06287923
Co       0.00000000       0.00000000       5.23575758       0.00000000       0.00000000      -0.06287923
2
Properties=species:S:1:pos:R:3:forces:R:3 energy=-3.907660089378469 pbc="F F F"
Co       0.00000000       0.00000000       0.00000000       0.00000000       0.00000000       0.05855665
Co       0.00000000       0.00000000       5.29454545       0.00000000       0.00000000      -0.05855665
2
Properties=species:S:1:pos:R:3:forces:R:3 energy=-3.9043907664902737 pbc="F F F"
Co       0.00000000       0.00000000       0.00000000       0.00000000       0.00000000       0.05223560
Co       0.00000000       0.00000000       5.35333333       0.00000000       0.00000000      -0.05223560
2
Properties=species:S:1:pos:R:3:forces:R:3 energy=-3.9015522440319335 pbc="F F F"
Co       0.00000000       0.00000000       0.00000000       0.00000000       0.00000000       0.04440983
Co       0.00000000       0.00000000       5.41212121       0.00000000       0.00000000      -0.04440983
2
Properties=species:S:1:pos:R:3:forces:R:3 energy=-3.899091735950585 pbc="F F F"
Co       0.00000000       0.00000000       0.00000000       0.00000000       0.00000000       0.04045970
Co       0.00000000       0.00000000       5.47090909       0.00000000       0.00000000      -0.04045970
2
Properties=species:S:1:pos:R:3:forces:R:3 energy=-3.896672350778012 pbc="F F F"
Co       0.00000000       0.00000000       0.00000000       0.00000000       0.00000000       0.04218110
Co       0.00000000       0.00000000       5.52969697       0.00000000       0.00000000      -0.04218110
2
Properties=species:S:1:pos:R:3:forces:R:3 energy=-3.8942052814969808 pbc="F F F"
Co       0.00000000       0.00000000       0.00000000       0.00000000       0.00000000       0.04056954
Co       0.00000000       0.00000000       5.58848485       0.00000000       0.00000000      -0.04056954
2
Properties=species:S:1:pos:R:3:forces:R:3 energy=-3.8920112307584 pbc="F F F"
Co       0.00000000       0.00000000       0.00000000       0.00000000       0.00000000       0.03385093
Co       0.00000000       0.00000000       5.64727273       0.00000000       0.00000000      -0.03385093
2
Properties=species:S:1:pos:R:3:forces:R:3 energy=-3.8901388228488245 pbc="F F F"
Co       0.00000000       0.00000000       0.00000000       0.00000000       0.00000000       0.03164309
Co       0.00000000       0.00000000       5.70606061       0.00000000       0.00000000      -0.03164309
2
Properties=species:S:1:pos:R:3:forces:R:3 energy=-3.888019890022851 pbc="F F F"
Co       0.00000000       0.00000000       0.00000000       0.00000000       0.00000000       0.04206093
Co       0.00000000       0.00000000       5.76484848       0.00000000       0.00000000      -0.04206093
2
Properties=species:S:1:pos:R:3:forces:R:3 energy=-3.8852431471279476 pbc="F F F"
Co       0.00000000       0.00000000       0.00000000       0.00000000       0.00000000       0.04974242
Co       0.00000000       0.00000000       5.82363636       0.00000000       0.00000000      -0.04974242
2
Properties=species:S:1:pos:R:3:forces:R:3 energy=-3.8825987224064296 pbc="F F F"
Co       0.00000000       0.00000000       0.00000000       0.00000000       0.00000000       0.03749661
Co       0.00000000       0.00000000       5.88242424       0.00000000       0.00000000      -0.03749661
2
Properties=species:S:1:pos:R:3:forces:R:3 energy=-3.8809819476745733 pbc="F F F"
Co       0.00000000       0.00000000       0.00000000       0.00000000       0.00000000       0.01788712
Co       0.00000000       0.00000000       5.94121212       0.00000000       0.00000000      -0.01788712
2
Properties=species:S:1:pos:R:3:forces:R:3 energy=-3.880270388600069 pbc="F F F"
Co       0.00000000       0.00000000       0.00000000       0.00000000       0.00000000       0.00903741
Co       0.00000000       0.00000000       6.00000000       0.00000000       0.00000000      -0.00903741
