2
Properties=species:S:1:pos:R:3:forces:R:3 energy=4326.0292633105855 pbc="F F F"
Cr       0.00000000       0.00000000       0.00000000       0.00000000       0.00000000  -46524.11718750
Cr       0.00000000       0.00000000       0.18000000       0.00000000       0.00000000   46524.11718750
2
Properties=species:S:1:pos:R:3:forces:R:3 energy=2616.5190094043355 pbc="F F F"
Cr       0.00000000       0.00000000       0.00000000       0.00000000       0.00000000  -17434.63476562
Cr       0.00000000       0.00000000       0.23878788       0.00000000       0.00000000   17434.63476562
2
Properties=species:S:1:pos:R:3:forces:R:3 energy=1911.1525543293783 pbc="F F F"
Cr       0.00000000       0.00000000       0.00000000       0.00000000       0.00000000   -8185.32763672
Cr       0.00000000       0.00000000       0.29757576       0.00000000       0.00000000    8185.32763672
2
Properties=species:S:1:pos:R:3:forces:R:3 energy=1556.1431549184836 pbc="F F F"
Cr       0.00000000       0.00000000       0.00000000       0.00000000       0.00000000   -4209.97021484
Cr       0.00000000       0.00000000       0.35636364       0.00000000       0.00000000    4209.97021484
2
Properties=species:S:1:pos:R:3:forces:R:3 energy=1348.7026031670066 pbc="F F F"
Cr       0.00000000       0.00000000       0.00000000       0.00000000       0.00000000   -3055.05151367
Cr       0.00000000       0.00000000       0.41515152       0.00000000       0.00000000    3055.05151367
2
Properties=species:S:1:pos:R:3:forces:R:3 energy=1177.2669342407012 pbc="F F F"
Cr       0.00000000       0.00000000       0.00000000       0.00000000       0.00000000   -2895.90209961
Cr       0.00000000       0.00000000       0.47393939       0.00000000       0.00000000    2895.90209961
2
Properties=species:S:1:pos:R:3:forces:R:3 energy=998.9451569317971 pbc="F F F"
Cr       0.00000000       0.00000000       0.00000000       0.00000000       0.00000000   -3212.14501953
Cr       0.00000000       0.00000000       0.53272727       0.00000000       0.00000000    3212.14501953
2
Properties=species:S:1:pos:R:3:forces:R:3 energy=799.2094392153805 pbc="F F F"
Cr       0.00000000       0.00000000       0.00000000       0.00000000       0.00000000   -3545.91943359
Cr       0.00000000       0.00000000       0.59151515       0.00000000       0.00000000    3545.91943359
2
Properties=species:S:1:pos:R:3:forces:R:3 energy=582.5189485877588 pbc="F F F"
Cr       0.00000000       0.00000000       0.00000000       0.00000000       0.00000000   -3634.84814453
Cr       0.00000000       0.00000000       0.65030303       0.00000000       0.00000000    3634.84814453
2
Properties=species:S:1:pos:R:3:forces:R:3 energy=384.0253879487987 pbc="F F F"
Cr       0.00000000       0.00000000       0.00000000       0.00000000       0.00000000   -2982.33715820
Cr       0.00000000       0.00000000       0.70909091       0.00000000       0.00000000    2982.33715820
2
Properties=species:S:1:pos:R:3:forces:R:3 energy=239.78684752746784 pbc="F F F"
Cr       0.00000000       0.00000000       0.00000000       0.00000000       0.00000000   -1928.53771973
Cr       0.00000000       0.00000000       0.76787879       0.00000000       0.00000000    1928.53771973
2
Properties=species:S:1:pos:R:3:forces:R:3 energy=151.33651522165542 pbc="F F F"
Cr       0.00000000       0.00000000       0.00000000       0.00000000       0.00000000   -1154.45385742
Cr       0.00000000       0.00000000       0.82666667       0.00000000       0.00000000    1154.45385742
2
Properties=species:S:1:pos:R:3:forces:R:3 energy=97.90288380935955 pbc="F F F"
Cr       0.00000000       0.00000000       0.00000000       0.00000000       0.00000000    -718.10412598
Cr       0.00000000       0.00000000       0.88545455       0.00000000       0.00000000     718.10412598
2
Properties=species:S:1:pos:R:3:forces:R:3 energy=62.16162777657413 pbc="F F F"
Cr       0.00000000       0.00000000       0.00000000       0.00000000       0.00000000    -513.63787842
Cr       0.00000000       0.00000000       0.94424242       0.00000000       0.00000000     513.63787842
2
Properties=species:S:1:pos:R:3:forces:R:3 energy=36.72984693594719 pbc="F F F"
Cr       0.00000000       0.00000000       0.00000000       0.00000000       0.00000000    -356.32321167
Cr       0.00000000       0.00000000       1.00303030       0.00000000       0.00000000     356.32321167
2
Properties=species:S:1:pos:R:3:forces:R:3 energy=19.508332538055004 pbc="F F F"
Cr       0.00000000       0.00000000       0.00000000       0.00000000       0.00000000    -237.03269958
Cr       0.00000000       0.00000000       1.06181818       0.00000000       0.00000000     237.03269958
2
Properties=species:S:1:pos:R:3:forces:R:3 energy=8.109485677034728 pbc="F F F"
Cr       0.00000000       0.00000000       0.00000000       0.00000000       0.00000000    -155.53843689
Cr       0.00000000       0.00000000       1.12060606       0.00000000       0.00000000     155.53843689
2
Properties=species:S:1:pos:R:3:forces:R:3 energy=0.7764924512659449 pbc="F F F"
Cr       0.00000000       0.00000000       0.00000000       0.00000000       0.00000000     -97.40686035
Cr       0.00000000       0.00000000       1.17939394       0.00000000       0.00000000      97.40686035
2
Properties=species:S:1:pos:R:3:forces:R:3 energy=-3.757281476802373 pbc="F F F"
Cr       0.00000000       0.00000000       0.00000000       0.00000000       0.00000000     -60.10897827
Cr       0.00000000       0.00000000       1.23818182       0.00000000       0.00000000      60.10897827
2
Properties=species:S:1:pos:R:3:forces:R:3 energy=-6.591997043378093 pbc="F F F"
Cr       0.00000000       0.00000000       0.00000000       0.00000000       0.00000000     -38.18232346
Cr       0.00000000       0.00000000       1.29696970       0.00000000       0.00000000      38.18232346
2
Properties=species:S:1:pos:R:3:forces:R:3 energy=-8.41119774682592 pbc="F F F"
Cr       0.00000000       0.00000000       0.00000000       0.00000000       0.00000000     -24.78217697
Cr       0.00000000       0.00000000       1.35575758       0.00000000       0.00000000      24.78217697
2
Properties=species:S:1:pos:R:3:forces:R:3 energy=-9.603222919745079 pbc="F F F"
Cr       0.00000000       0.00000000       0.00000000       0.00000000       0.00000000     -16.39369011
Cr       0.00000000       0.00000000       1.41454545       0.00000000       0.00000000      16.39369011
2
Properties=species:S:1:pos:R:3:forces:R:3 energy=-10.397055253131768 pbc="F F F"
Cr       0.00000000       0.00000000       0.00000000       0.00000000       0.00000000     -11.03314495
Cr       0.00000000       0.00000000       1.47333333       0.00000000       0.00000000      11.03314495
2
Properties=species:S:1:pos:R:3:forces:R:3 energy=-10.944411704876917 pbc="F F F"
Cr       0.00000000       0.00000000       0.00000000       0.00000000       0.00000000      -7.90519094
Cr       0.00000000       0.00000000       1.53212121       0.00000000       0.00000000       7.90519094
2
Properties=species:S:1:pos:R:3:forces:R:3 energy=-11.353892612667254 pbc="F F F"
Cr       0.00000000       0.00000000       0.00000000       0.00000000       0.00000000      -6.16681099
Cr       0.00000000       0.00000000       1.59090909       0.00000000       0.00000000       6.16681099
2
Properties=species:S:1:pos:R:3:forces:R:3 energy=-11.6768884153147 pbc="F F F"
Cr       0.00000000       0.00000000       0.00000000       0.00000000       0.00000000      -4.82622623
Cr       0.00000000       0.00000000       1.64969697       0.00000000       0.00000000       4.82622623
2
Properties=species:S:1:pos:R:3:forces:R:3 energy=-11.918779616599533 pbc="F F F"
Cr       0.00000000       0.00000000       0.00000000       0.00000000       0.00000000      -3.37469387
Cr       0.00000000       0.00000000       1.70848485       0.00000000       0.00000000       3.37469387
2
Properties=species:S:1:pos:R:3:forces:R:3 energy=-12.072101947031415 pbc="F F F"
Cr       0.00000000       0.00000000       0.00000000       0.00000000       0.00000000      -1.85032761
Cr       0.00000000       0.00000000       1.76727273       0.00000000       0.00000000       1.85032761
2
Properties=species:S:1:pos:R:3:forces:R:3 energy=-12.139873589256952 pbc="F F F"
Cr       0.00000000       0.00000000       0.00000000       0.00000000       0.00000000      -0.49975100
Cr       0.00000000       0.00000000       1.82606061       0.00000000       0.00000000       0.49975100
2
Properties=species:S:1:pos:R:3:forces:R:3 energy=-12.136358570511376 pbc="F F F"
Cr       0.00000000       0.00000000       0.00000000       0.00000000       0.00000000       0.57556963
Cr       0.00000000       0.00000000       1.88484848       0.00000000       0.00000000      -0.57556963
2
Properties=species:S:1:pos:R:3:forces:R:3 energy=-12.076868140808658 pbc="F F F"
Cr       0.00000000       0.00000000       0.00000000       0.00000000       0.00000000       1.40955842
Cr       0.00000000       0.00000000       1.94363636       0.00000000       0.00000000      -1.40955842
2
Properties=species:S:1:pos:R:3:forces:R:3 energy=-11.97593591214555 pbc="F F F"
Cr       0.00000000       0.00000000       0.00000000       0.00000000       0.00000000       1.96757293
Cr       0.00000000       0.00000000       2.00242424       0.00000000       0.00000000      -1.96757293
2
Properties=species:S:1:pos:R:3:forces:R:3 energy=-11.854171307112196 pbc="F F F"
Cr       0.00000000       0.00000000       0.00000000       0.00000000       0.00000000       2.08416009
Cr       0.00000000       0.00000000       2.06121212       0.00000000       0.00000000      -2.08416009
2
Properties=species:S:1:pos:R:3:forces:R:3 energy=-11.7428834403362 pbc="F F F"
Cr       0.00000000       0.00000000       0.00000000       0.00000000       0.00000000       1.59744227
Cr       0.00000000       0.00000000       2.12000000       0.00000000       0.00000000      -1.59744227
2
Properties=species:S:1:pos:R:3:forces:R:3 energy=-11.676888353773727 pbc="F F F"
Cr       0.00000000       0.00000000       0.00000000       0.00000000       0.00000000       0.58477169
Cr       0.00000000       0.00000000       2.17878788       0.00000000       0.00000000      -0.58477169
2
Properties=species:S:1:pos:R:3:forces:R:3 energy=-11.67697452803839 pbc="F F F"
Cr       0.00000000       0.00000000       0.00000000       0.00000000       0.00000000      -0.57089037
Cr       0.00000000       0.00000000       2.23757576       0.00000000       0.00000000       0.57089037
2
Properties=species:S:1:pos:R:3:forces:R:3 energy=-11.737901062961747 pbc="F F F"
Cr       0.00000000       0.00000000       0.00000000       0.00000000       0.00000000      -1.42348361
Cr       0.00000000       0.00000000       2.29636364       0.00000000       0.00000000       1.42348361
2
Properties=species:S:1:pos:R:3:forces:R:3 energy=-11.833871504251965 pbc="F F F"
Cr       0.00000000       0.00000000       0.00000000       0.00000000       0.00000000      -1.75186610
Cr       0.00000000       0.00000000       2.35515152       0.00000000       0.00000000       1.75186610
2
Properties=species:S:1:pos:R:3:forces:R:3 energy=-11.934620595555275 pbc="F F F"
Cr       0.00000000       0.00000000       0.00000000       0.00000000       0.00000000      -1.61252511
Cr       0.00000000       0.00000000       2.41393939       0.00000000       0.00000000       1.61252511
2
Properties=species:S:1:pos:R:3:forces:R:3 energy=-12.018245145510054 pbc="F F F"
Cr       0.00000000       0.00000000       0.00000000       0.00000000       0.00000000      -1.20652318
Cr       0.00000000       0.00000000       2.47272727       0.00000000       0.00000000       1.20652318
2
Properties=species:S:1:pos:R:3:forces:R:3 energy=-12.075300444261973 pbc="F F F"
Cr       0.00000000       0.00000000       0.00000000       0.00000000       0.00000000      -0.73781824
Cr       0.00000000       0.00000000       2.53151515       0.00000000       0.00000000       0.73781824
2
Properties=species:S:1:pos:R:3:forces:R:3 energy=-12.10637952225624 pbc="F F F"
Cr       0.00000000       0.00000000       0.00000000       0.00000000       0.00000000      -0.33639982
Cr       0.00000000       0.00000000       2.59030303       0.00000000       0.00000000       0.33639982
2
Properties=species:S:1:pos:R:3:forces:R:3 energy=-12.116890870824417 pbc="F F F"
Cr       0.00000000       0.00000000       0.00000000       0.00000000       0.00000000      -0.03672403
Cr       0.00000000       0.00000000       2.64909091       0.00000000       0.00000000       0.03672403
2
Properties=species:S:1:pos:R:3:forces:R:3 energy=-12.11222276155073 pbc="F F F"
Cr       0.00000000       0.00000000       0.00000000       0.00000000       0.00000000       0.18391307
Cr       0.00000000       0.00000000       2.70787879       0.00000000       0.00000000      -0.18391307
2
Properties=species:S:1:pos:R:3:forces:R:3 energy=-12.096721662165141 pbc="F F F"
Cr       0.00000000       0.00000000       0.00000000       0.00000000       0.00000000       0.33009267
Cr       0.00000000       0.00000000       2.76666667       0.00000000       0.00000000      -0.33009267
2
Properties=species:S:1:pos:R:3:forces:R:3 energy=-12.074900306712562 pbc="F F F"
Cr       0.00000000       0.00000000       0.00000000       0.00000000       0.00000000       0.40181607
Cr       0.00000000       0.00000000       2.82545455       0.00000000       0.00000000      -0.40181607
2
Properties=species:S:1:pos:R:3:forces:R:3 energy=-12.050299360270431 pbc="F F F"
Cr       0.00000000       0.00000000       0.00000000       0.00000000       0.00000000       0.43163723
Cr       0.00000000       0.00000000       2.88424242       0.00000000       0.00000000      -0.43163723
2
Properties=species:S:1:pos:R:3:forces:R:3 energy=-12.024250757421365 pbc="F F F"
Cr       0.00000000       0.00000000       0.00000000       0.00000000       0.00000000       0.45560798
Cr       0.00000000       0.00000000       2.94303030       0.00000000       0.00000000      -0.45560798
2
Properties=species:S:1:pos:R:3:forces:R:3 energy=-11.996507159577682 pbc="F F F"
Cr       0.00000000       0.00000000       0.00000000       0.00000000       0.00000000       0.49039194
Cr       0.00000000       0.00000000       3.00181818       0.00000000       0.00000000      -0.49039194
2
Properties=species:S:1:pos:R:3:forces:R:3 energy=-11.966380246339202 pbc="F F F"
Cr       0.00000000       0.00000000       0.00000000       0.00000000       0.00000000       0.53574711
Cr       0.00000000       0.00000000       3.06060606       0.00000000       0.00000000      -0.53574711
2
Properties=species:S:1:pos:R:3:forces:R:3 energy=-11.933468406399072 pbc="F F F"
Cr       0.00000000       0.00000000       0.00000000       0.00000000       0.00000000       0.58355880
Cr       0.00000000       0.00000000       3.11939394       0.00000000       0.00000000      -0.58355880
2
Properties=species:S:1:pos:R:3:forces:R:3 energy=-11.8978977229012 pbc="F F F"
Cr       0.00000000       0.00000000       0.00000000       0.00000000       0.00000000       0.62485069
Cr       0.00000000       0.00000000       3.17818182       0.00000000       0.00000000      -0.62485069
2
Properties=species:S:1:pos:R:3:forces:R:3 energy=-11.860252886900566 pbc="F F F"
Cr       0.00000000       0.00000000       0.00000000       0.00000000       0.00000000       0.65340322
Cr       0.00000000       0.00000000       3.23696970       0.00000000       0.00000000      -0.65340322
2
Properties=species:S:1:pos:R:3:forces:R:3 energy=-11.821373705650966 pbc="F F F"
Cr       0.00000000       0.00000000       0.00000000       0.00000000       0.00000000       0.66672122
Cr       0.00000000       0.00000000       3.29575758       0.00000000       0.00000000      -0.66672122
2
Properties=species:S:1:pos:R:3:forces:R:3 energy=-11.782149210003281 pbc="F F F"
Cr       0.00000000       0.00000000       0.00000000       0.00000000       0.00000000       0.66546500
Cr       0.00000000       0.00000000       3.35454545       0.00000000       0.00000000      -0.66546500
2
Properties=species:S:1:pos:R:3:forces:R:3 energy=-11.743365560695102 pbc="F F F"
Cr       0.00000000       0.00000000       0.00000000       0.00000000       0.00000000       0.65227091
Cr       0.00000000       0.00000000       3.41333333       0.00000000       0.00000000      -0.65227091
2
Properties=species:S:1:pos:R:3:forces:R:3 energy=-11.705625448535876 pbc="F F F"
Cr       0.00000000       0.00000000       0.00000000       0.00000000       0.00000000       0.63054007
Cr       0.00000000       0.00000000       3.47212121       0.00000000       0.00000000      -0.63054007
2
Properties=species:S:1:pos:R:3:forces:R:3 energy=-11.669333706928782 pbc="F F F"
Cr       0.00000000       0.00000000       0.00000000       0.00000000       0.00000000       0.60350651
Cr       0.00000000       0.00000000       3.53090909       0.00000000       0.00000000      -0.60350651
2
Properties=species:S:1:pos:R:3:forces:R:3 energy=-11.634721527531655 pbc="F F F"
Cr       0.00000000       0.00000000       0.00000000       0.00000000       0.00000000       0.57371861
Cr       0.00000000       0.00000000       3.58969697       0.00000000       0.00000000      -0.57371861
2
Properties=species:S:1:pos:R:3:forces:R:3 energy=-11.601896897289798 pbc="F F F"
Cr       0.00000000       0.00000000       0.00000000       0.00000000       0.00000000       0.54291260
Cr       0.00000000       0.00000000       3.64848485       0.00000000       0.00000000      -0.54291260
2
Properties=species:S:1:pos:R:3:forces:R:3 energy=-11.570886819867322 pbc="F F F"
Cr       0.00000000       0.00000000       0.00000000       0.00000000       0.00000000       0.51213485
Cr       0.00000000       0.00000000       3.70727273       0.00000000       0.00000000      -0.51213485
2
Properties=species:S:1:pos:R:3:forces:R:3 energy=-11.541669670881824 pbc="F F F"
Cr       0.00000000       0.00000000       0.00000000       0.00000000       0.00000000       0.48196045
Cr       0.00000000       0.00000000       3.76606061       0.00000000       0.00000000      -0.48196045
2
Properties=species:S:1:pos:R:3:forces:R:3 energy=-11.514202052840698 pbc="F F F"
Cr       0.00000000       0.00000000       0.00000000       0.00000000       0.00000000       0.45270842
Cr       0.00000000       0.00000000       3.82484848       0.00000000       0.00000000      -0.45270842
2
Properties=species:S:1:pos:R:3:forces:R:3 energy=-11.488420683482843 pbc="F F F"
Cr       0.00000000       0.00000000       0.00000000       0.00000000       0.00000000       0.42457497
Cr       0.00000000       0.00000000       3.88363636       0.00000000       0.00000000      -0.42457497
2
Properties=species:S:1:pos:R:3:forces:R:3 energy=-11.46425669455776 pbc="F F F"
Cr       0.00000000       0.00000000       0.00000000       0.00000000       0.00000000       0.39771205
Cr       0.00000000       0.00000000       3.94242424       0.00000000       0.00000000      -0.39771205
2
Properties=species:S:1:pos:R:3:forces:R:3 energy=-11.44163272011745 pbc="F F F"
Cr       0.00000000       0.00000000       0.00000000       0.00000000       0.00000000       0.37222254
Cr       0.00000000       0.00000000       4.00121212       0.00000000       0.00000000      -0.37222254
2
Properties=species:S:1:pos:R:3:forces:R:3 energy=-11.4204647531799 pbc="F F F"
Cr       0.00000000       0.00000000       0.00000000       0.00000000       0.00000000       0.34814611
Cr       0.00000000       0.00000000       4.06000000       0.00000000       0.00000000      -0.34814611
2
Properties=species:S:1:pos:R:3:forces:R:3 energy=-11.400672490426725 pbc="F F F"
Cr       0.00000000       0.00000000       0.00000000       0.00000000       0.00000000       0.32543504
Cr       0.00000000       0.00000000       4.11878788       0.00000000       0.00000000      -0.32543504
2
Properties=species:S:1:pos:R:3:forces:R:3 energy=-11.3821782961655 pbc="F F F"
Cr       0.00000000       0.00000000       0.00000000       0.00000000       0.00000000       0.30393970
Cr       0.00000000       0.00000000       4.17757576       0.00000000       0.00000000      -0.30393970
2
Properties=species:S:1:pos:R:3:forces:R:3 energy=-11.364916491982779 pbc="F F F"
Cr       0.00000000       0.00000000       0.00000000       0.00000000       0.00000000       0.28343123
Cr       0.00000000       0.00000000       4.23636364       0.00000000       0.00000000      -0.28343123
2
Properties=species:S:1:pos:R:3:forces:R:3 energy=-11.348838990090979 pbc="F F F"
Cr       0.00000000       0.00000000       0.00000000       0.00000000       0.00000000       0.26364699
Cr       0.00000000       0.00000000       4.29515152       0.00000000       0.00000000      -0.26364699
2
Properties=species:S:1:pos:R:3:forces:R:3 energy=-11.333909324192357 pbc="F F F"
Cr       0.00000000       0.00000000       0.00000000       0.00000000       0.00000000       0.24435149
Cr       0.00000000       0.00000000       4.35393939       0.00000000       0.00000000      -0.24435149
2
Properties=species:S:1:pos:R:3:forces:R:3 energy=-11.320103343391906 pbc="F F F"
Cr       0.00000000       0.00000000       0.00000000       0.00000000       0.00000000       0.22538641
Cr       0.00000000       0.00000000       4.41272727       0.00000000       0.00000000      -0.22538641
2
Properties=species:S:1:pos:R:3:forces:R:3 energy=-11.307403426795014 pbc="F F F"
Cr       0.00000000       0.00000000       0.00000000       0.00000000       0.00000000       0.20671503
Cr       0.00000000       0.00000000       4.47151515       0.00000000       0.00000000      -0.20671503
2
Properties=species:S:1:pos:R:3:forces:R:3 energy=-11.295790534162897 pbc="F F F"
Cr       0.00000000       0.00000000       0.00000000       0.00000000       0.00000000       0.18842110
Cr       0.00000000       0.00000000       4.53030303       0.00000000       0.00000000      -0.18842110
2
Properties=species:S:1:pos:R:3:forces:R:3 energy=-11.285238398335506 pbc="F F F"
Cr       0.00000000       0.00000000       0.00000000       0.00000000       0.00000000       0.17067885
Cr       0.00000000       0.00000000       4.58909091       0.00000000       0.00000000      -0.17067885
2
Properties=species:S:1:pos:R:3:forces:R:3 energy=-11.275708668160917 pbc="F F F"
Cr       0.00000000       0.00000000       0.00000000       0.00000000       0.00000000       0.15369770
Cr       0.00000000       0.00000000       4.64787879       0.00000000       0.00000000      -0.15369770
2
Properties=species:S:1:pos:R:3:forces:R:3 energy=-11.267148738217465 pbc="F F F"
Cr       0.00000000       0.00000000       0.00000000       0.00000000       0.00000000       0.13765720
Cr       0.00000000       0.00000000       4.70666667       0.00000000       0.00000000      -0.13765720
2
Properties=species:S:1:pos:R:3:forces:R:3 energy=-11.25950230892331 pbc="F F F"
Cr       0.00000000       0.00000000       0.00000000       0.00000000       0.00000000       0.12265754
Cr       0.00000000       0.00000000       4.76545455       0.00000000       0.00000000      -0.12265754
2
Properties=species:S:1:pos:R:3:forces:R:3 energy=-11.252707380985322 pbc="F F F"
Cr       0.00000000       0.00000000       0.00000000       0.00000000       0.00000000       0.10869152
Cr       0.00000000       0.00000000       4.82424242       0.00000000       0.00000000      -0.10869152
2
Properties=species:S:1:pos:R:3:forces:R:3 energy=-11.246704838467926 pbc="F F F"
Cr       0.00000000       0.00000000       0.00000000       0.00000000       0.00000000       0.09566931
Cr       0.00000000       0.00000000       4.88303030       0.00000000       0.00000000      -0.09566931
2
Properties=species:S:1:pos:R:3:forces:R:3 energy=-11.241443166479518 pbc="F F F"
Cr       0.00000000       0.00000000       0.00000000       0.00000000       0.00000000       0.08345212
Cr       0.00000000       0.00000000       4.94181818       0.00000000       0.00000000      -0.08345212
2
Properties=species:S:1:pos:R:3:forces:R:3 energy=-11.236879506217116 pbc="F F F"
Cr       0.00000000       0.00000000       0.00000000       0.00000000       0.00000000       0.07192719
Cr       0.00000000       0.00000000       5.00060606       0.00000000       0.00000000      -0.07192719
2
Properties=species:S:1:pos:R:3:forces:R:3 energy=-11.232973996276879 pbc="F F F"
Cr       0.00000000       0.00000000       0.00000000       0.00000000       0.00000000       0.06104145
Cr       0.00000000       0.00000000       5.05939394       0.00000000       0.00000000      -0.06104145
2
Properties=species:S:1:pos:R:3:forces:R:3 energy=-11.229688803140695 pbc="F F F"
Cr       0.00000000       0.00000000       0.00000000       0.00000000       0.00000000       0.05083653
Cr       0.00000000       0.00000000       5.11818182       0.00000000       0.00000000      -0.05083653
2
Properties=species:S:1:pos:R:3:forces:R:3 energy=-11.226980605823238 pbc="F F F"
Cr       0.00000000       0.00000000       0.00000000       0.00000000       0.00000000       0.04144154
Cr       0.00000000       0.00000000       5.17696970       0.00000000       0.00000000      -0.04144154
2
Properties=species:S:1:pos:R:3:forces:R:3 energy=-11.22479596371675 pbc="F F F"
Cr       0.00000000       0.00000000       0.00000000       0.00000000       0.00000000       0.03309231
Cr       0.00000000       0.00000000       5.23575758       0.00000000       0.00000000      -0.03309231
2
Properties=species:S:1:pos:R:3:forces:R:3 energy=-11.223062698676133 pbc="F F F"
Cr       0.00000000       0.00000000       0.00000000       0.00000000       0.00000000       0.02613638
Cr       0.00000000       0.00000000       5.29454545       0.00000000       0.00000000      -0.02613638
2
Properties=species:S:1:pos:R:3:forces:R:3 energy=-11.221688180907487 pbc="F F F"
Cr       0.00000000       0.00000000       0.00000000       0.00000000       0.00000000       0.02092547
Cr       0.00000000       0.00000000       5.35333333       0.00000000       0.00000000      -0.02092547
2
Properties=species:S:1:pos:R:3:forces:R:3 energy=-11.220571745741136 pbc="F F F"
Cr       0.00000000       0.00000000       0.00000000       0.00000000       0.00000000       0.01722449
Cr       0.00000000       0.00000000       5.41212121       0.00000000       0.00000000      -0.01722449
2
Properties=species:S:1:pos:R:3:forces:R:3 energy=-11.219663878460059 pbc="F F F"
Cr       0.00000000       0.00000000       0.00000000       0.00000000       0.00000000       0.01349277
Cr       0.00000000       0.00000000       5.47090909       0.00000000       0.00000000      -0.01349277
2
Properties=species:S:1:pos:R:3:forces:R:3 energy=-11.219007330001446 pbc="F F F"
Cr       0.00000000       0.00000000       0.00000000       0.00000000       0.00000000       0.00877540
Cr       0.00000000       0.00000000       5.52969697       0.00000000       0.00000000      -0.00877540
2
Properties=species:S:1:pos:R:3:forces:R:3 energy=-11.218617967855758 pbc="F F F"
Cr       0.00000000       0.00000000       0.00000000       0.00000000       0.00000000       0.00471536
Cr       0.00000000       0.00000000       5.58848485       0.00000000       0.00000000      -0.00471536
2
Properties=species:S:1:pos:R:3:forces:R:3 energy=-11.218422804659193 pbc="F F F"
Cr       0.00000000       0.00000000       0.00000000       0.00000000       0.00000000       0.00211479
Cr       0.00000000       0.00000000       5.64727273       0.00000000       0.00000000      -0.00211479
2
Properties=species:S:1:pos:R:3:forces:R:3 energy=-11.218353520049224 pbc="F F F"
Cr       0.00000000       0.00000000       0.00000000       0.00000000       0.00000000       0.00027247
Cr       0.00000000       0.00000000       5.70606061       0.00000000       0.00000000      -0.00027247
2
Properties=species:S:1:pos:R:3:forces:R:3 energy=-11.21839803035368 pbc="F F F"
Cr       0.00000000       0.00000000       0.00000000       0.00000000       0.00000000      -0.00159504
Cr       0.00000000       0.00000000       5.76484848       0.00000000       0.00000000       0.00159504
2
Properties=species:S:1:pos:R:3:forces:R:3 energy=-11.21848032721079 pbc="F F F"
Cr       0.00000000       0.00000000       0.00000000       0.00000000       0.00000000      -0.00038126
Cr       0.00000000       0.00000000       5.82363636       0.00000000       0.00000000       0.00038126
2
Properties=species:S:1:pos:R:3:forces:R:3 energy=-11.21835177928796 pbc="F F F"
Cr       0.00000000       0.00000000       0.00000000       0.00000000       0.00000000       0.00504052
Cr       0.00000000       0.00000000       5.88242424       0.00000000       0.00000000      -0.00504052
2
Properties=species:S:1:pos:R:3:forces:R:3 energy=-11.217893511188471 pbc="F F F"
Cr       0.00000000       0.00000000       0.00000000       0.00000000       0.00000000       0.01019715
Cr       0.00000000       0.00000000       5.94121212       0.00000000       0.00000000      -0.01019715
2
Properties=species:S:1:pos:R:3:forces:R:3 energy=-11.217226054615065 pbc="F F F"
Cr       0.00000000       0.00000000       0.00000000       0.00000000       0.00000000       0.01175158
Cr       0.00000000       0.00000000       6.00000000       0.00000000       0.00000000      -0.01175158
