2
Properties=species:S:1:pos:R:3:forces:R:3 energy=14310.846646123086 pbc="F F F"
Cr       0.00000000       0.00000000       0.00000000       0.00000000       0.00000000 -288381.09375000
Cr       0.00000000       0.00000000       0.10000000       0.00000000       0.00000000  288381.09375000
2
Properties=species:S:1:pos:R:3:forces:R:3 energy=5489.6269195605855 pbc="F F F"
Cr       0.00000000       0.00000000       0.00000000       0.00000000       0.00000000  -69382.33593750
Cr       0.00000000       0.00000000       0.15959596       0.00000000       0.00000000   69382.33593750
2
Properties=species:S:1:pos:R:3:forces:R:3 energy=3014.5248687793355 pbc="F F F"
Cr       0.00000000       0.00000000       0.00000000       0.00000000       0.00000000  -23576.85351562
Cr       0.00000000       0.00000000       0.21919192       0.00000000       0.00000000   23576.85351562
2
Properties=species:S:1:pos:R:3:forces:R:3 energy=2082.3835113606283 pbc="F F F"
Cr       0.00000000       0.00000000       0.00000000       0.00000000       0.00000000  -10154.66503906
Cr       0.00000000       0.00000000       0.27878788       0.00000000       0.00000000   10154.66503906
2
Properties=species:S:1:pos:R:3:forces:R:3 energy=1638.6132476887533 pbc="F F F"
Cr       0.00000000       0.00000000       0.00000000       0.00000000       0.00000000   -5127.14355469
Cr       0.00000000       0.00000000       0.33838384       0.00000000       0.00000000    5127.14355469
2
Properties=species:S:1:pos:R:3:forces:R:3 energy=1402.8247955466513 pbc="F F F"
Cr       0.00000000       0.00000000       0.00000000       0.00000000       0.00000000   -3264.39721680
Cr       0.00000000       0.00000000       0.39797980       0.00000000       0.00000000    3264.39721680
2
Properties=species:S:1:pos:R:3:forces:R:3 energy=1224.4070709531154 pbc="F F F"
Cr       0.00000000       0.00000000       0.00000000       0.00000000       0.00000000   -2872.59814453
Cr       0.00000000       0.00000000       0.45757576       0.00000000       0.00000000    2872.59814453
2
Properties=species:S:1:pos:R:3:forces:R:3 energy=1048.0922516456883 pbc="F F F"
Cr       0.00000000       0.00000000       0.00000000       0.00000000       0.00000000   -3107.71948242
Cr       0.00000000       0.00000000       0.51717172       0.00000000       0.00000000    3107.71948242
2
Properties=species:S:1:pos:R:3:forces:R:3 energy=851.1070832393423 pbc="F F F"
Cr       0.00000000       0.00000000       0.00000000       0.00000000       0.00000000   -3487.14624023
Cr       0.00000000       0.00000000       0.57676768       0.00000000       0.00000000    3487.14624023
2
Properties=species:S:1:pos:R:3:forces:R:3 energy=633.9866609647601 pbc="F F F"
Cr       0.00000000       0.00000000       0.00000000       0.00000000       0.00000000   -3743.90991211
Cr       0.00000000       0.00000000       0.63636364       0.00000000       0.00000000    3743.90991211
2
Properties=species:S:1:pos:R:3:forces:R:3 energy=424.6451388810117 pbc="F F F"
Cr       0.00000000       0.00000000       0.00000000       0.00000000       0.00000000   -3202.66967773
Cr       0.00000000       0.00000000       0.69595960       0.00000000       0.00000000    3202.66967773
2
Properties=species:S:1:pos:R:3:forces:R:3 energy=264.8378270847048 pbc="F F F"
Cr       0.00000000       0.00000000       0.00000000       0.00000000       0.00000000   -2140.41284180
Cr       0.00000000       0.00000000       0.75555556       0.00000000       0.00000000    2140.41284180
2
Properties=species:S:1:pos:R:3:forces:R:3 energy=165.2723366788308 pbc="F F F"
Cr       0.00000000       0.00000000       0.00000000       0.00000000       0.00000000   -1266.69433594
Cr       0.00000000       0.00000000       0.81515152       0.00000000       0.00000000    1266.69433594
2
Properties=species:S:1:pos:R:3:forces:R:3 energy=105.87362497679408 pbc="F F F"
Cr       0.00000000       0.00000000       0.00000000       0.00000000       0.00000000    -772.35241699
Cr       0.00000000       0.00000000       0.87474747       0.00000000       0.00000000     772.35241699
2
Properties=species:S:1:pos:R:3:forces:R:3 energy=67.38999831002951 pbc="F F F"
Cr       0.00000000       0.00000000       0.00000000       0.00000000       0.00000000    -542.88311768
Cr       0.00000000       0.00000000       0.93434343       0.00000000       0.00000000     542.88311768
2
Properties=species:S:1:pos:R:3:forces:R:3 energy=40.06993466184544 pbc="F F F"
Cr       0.00000000       0.00000000       0.00000000       0.00000000       0.00000000    -378.64868164
Cr       0.00000000       0.00000000       0.99393939       0.00000000       0.00000000     378.64868164
2
Properties=species:S:1:pos:R:3:forces:R:3 energy=21.529591646343537 pbc="F F F"
Cr       0.00000000       0.00000000       0.00000000       0.00000000       0.00000000    -251.16436768
Cr       0.00000000       0.00000000       1.05353535       0.00000000       0.00000000     251.16436768
2
Properties=species:S:1:pos:R:3:forces:R:3 energy=9.30510502257795 pbc="F F F"
Cr       0.00000000       0.00000000       0.00000000       0.00000000       0.00000000    -164.42997742
Cr       0.00000000       0.00000000       1.11313131       0.00000000       0.00000000     164.42997742
2
Properties=species:S:1:pos:R:3:forces:R:3 energy=1.444162425604383 pbc="F F F"
Cr       0.00000000       0.00000000       0.00000000       0.00000000       0.00000000    -102.94142151
Cr       0.00000000       0.00000000       1.17272727       0.00000000       0.00000000     102.94142151
2
Properties=species:S:1:pos:R:3:forces:R:3 energy=-3.396770493804412 pbc="F F F"
Cr       0.00000000       0.00000000       0.00000000       0.00000000       0.00000000     -62.99003983
Cr       0.00000000       0.00000000       1.23232323       0.00000000       0.00000000      62.99003983
2
Properties=species:S:1:pos:R:3:forces:R:3 energy=-6.39544987726314 pbc="F F F"
Cr       0.00000000       0.00000000       0.00000000       0.00000000       0.00000000     -39.66523361
Cr       0.00000000       0.00000000       1.29191919       0.00000000       0.00000000      39.66523361
2
Properties=species:S:1:pos:R:3:forces:R:3 energy=-8.304447626012038 pbc="F F F"
Cr       0.00000000       0.00000000       0.00000000       0.00000000       0.00000000     -25.54851341
Cr       0.00000000       0.00000000       1.35151515       0.00000000       0.00000000      25.54851341
2
Properties=species:S:1:pos:R:3:forces:R:3 energy=-9.546246968853072 pbc="F F F"
Cr       0.00000000       0.00000000       0.00000000       0.00000000       0.00000000     -16.78867340
Cr       0.00000000       0.00000000       1.41111111       0.00000000       0.00000000      16.78867340
2
Properties=species:S:1:pos:R:3:forces:R:3 energy=-10.367835980547477 pbc="F F F"
Cr       0.00000000       0.00000000       0.00000000       0.00000000       0.00000000     -11.22054482
Cr       0.00000000       0.00000000       1.47070707       0.00000000       0.00000000      11.22054482
2
Properties=species:S:1:pos:R:3:forces:R:3 energy=-10.929978148209035 pbc="F F F"
Cr       0.00000000       0.00000000       0.00000000       0.00000000       0.00000000      -7.97559500
Cr       0.00000000       0.00000000       1.53030303       0.00000000       0.00000000       7.97559500
2
Properties=species:S:1:pos:R:3:forces:R:3 energy=-11.347649103322714 pbc="F F F"
Cr       0.00000000       0.00000000       0.00000000       0.00000000       0.00000000      -6.19094801
Cr       0.00000000       0.00000000       1.58989899       0.00000000       0.00000000       6.19094801
2
Properties=species:S:1:pos:R:3:forces:R:3 energy=-11.67591571819712 pbc="F F F"
Cr       0.00000000       0.00000000       0.00000000       0.00000000       0.00000000      -4.83090448
Cr       0.00000000       0.00000000       1.64949495       0.00000000       0.00000000       4.83090448
2
Properties=species:S:1:pos:R:3:forces:R:3 energy=-11.92081935489993 pbc="F F F"
Cr       0.00000000       0.00000000       0.00000000       0.00000000       0.00000000      -3.35895920
Cr       0.00000000       0.00000000       1.70909091       0.00000000       0.00000000       3.35895920
2
Properties=species:S:1:pos:R:3:forces:R:3 energy=-12.074694559841735 pbc="F F F"
Cr       0.00000000       0.00000000       0.00000000       0.00000000       0.00000000      -1.81491959
Cr       0.00000000       0.00000000       1.76868687       0.00000000       0.00000000       1.81491959
2
Properties=species:S:1:pos:R:3:forces:R:3 energy=-12.140934322346773 pbc="F F F"
Cr       0.00000000       0.00000000       0.00000000       0.00000000       0.00000000      -0.45416567
Cr       0.00000000       0.00000000       1.82828283       0.00000000       0.00000000       0.45416567
2
Properties=species:S:1:pos:R:3:forces:R:3 energy=-12.134541916133138 pbc="F F F"
Cr       0.00000000       0.00000000       0.00000000       0.00000000       0.00000000       0.62418938
Cr       0.00000000       0.00000000       1.88787879       0.00000000       0.00000000      -0.62418938
2
Properties=species:S:1:pos:R:3:forces:R:3 energy=-12.071369609656191 pbc="F F F"
Cr       0.00000000       0.00000000       0.00000000       0.00000000       0.00000000       1.45561016
Cr       0.00000000       0.00000000       1.94747475       0.00000000       0.00000000      -1.45561016
2
Properties=species:S:1:pos:R:3:forces:R:3 energy=-11.96672695085031 pbc="F F F"
Cr       0.00000000       0.00000000       0.00000000       0.00000000       0.00000000       1.99558508
Cr       0.00000000       0.00000000       2.00707071       0.00000000       0.00000000      -1.99558508
2
Properties=species:S:1:pos:R:3:forces:R:3 energy=-11.84285136339945 pbc="F F F"
Cr       0.00000000       0.00000000       0.00000000       0.00000000       0.00000000       2.06562400
Cr       0.00000000       0.00000000       2.06666667       0.00000000       0.00000000      -2.06562400
2
Properties=species:S:1:pos:R:3:forces:R:3 energy=-11.733149256160043 pbc="F F F"
Cr       0.00000000       0.00000000       0.00000000       0.00000000       0.00000000       1.51001465
Cr       0.00000000       0.00000000       2.12626263       0.00000000       0.00000000      -1.51001465
2
Properties=species:S:1:pos:R:3:forces:R:3 energy=-11.673252594343353 pbc="F F F"
Cr       0.00000000       0.00000000       0.00000000       0.00000000       0.00000000       0.44372800
Cr       0.00000000       0.00000000       2.18585859       0.00000000       0.00000000      -0.44372800
2
Properties=species:S:1:pos:R:3:forces:R:3 energy=-11.682027608145921 pbc="F F F"
Cr       0.00000000       0.00000000       0.00000000       0.00000000       0.00000000      -0.71071917
Cr       0.00000000       0.00000000       2.24545455       0.00000000       0.00000000       0.71071917
2
Properties=species:S:1:pos:R:3:forces:R:3 energy=-11.750634380826304 pbc="F F F"
Cr       0.00000000       0.00000000       0.00000000       0.00000000       0.00000000      -1.50633681
Cr       0.00000000       0.00000000       2.30505051       0.00000000       0.00000000       1.50633681
2
Properties=species:S:1:pos:R:3:forces:R:3 energy=-11.850537271007934 pbc="F F F"
Cr       0.00000000       0.00000000       0.00000000       0.00000000       0.00000000      -1.75662756
Cr       0.00000000       0.00000000       2.36464646       0.00000000       0.00000000       1.75662756
2
Properties=species:S:1:pos:R:3:forces:R:3 energy=-11.950939401995534 pbc="F F F"
Cr       0.00000000       0.00000000       0.00000000       0.00000000       0.00000000      -1.55429649
Cr       0.00000000       0.00000000       2.42424242       0.00000000       0.00000000       1.55429649
2
Properties=species:S:1:pos:R:3:forces:R:3 energy=-12.031156543802176 pbc="F F F"
Cr       0.00000000       0.00000000       0.00000000       0.00000000       0.00000000      -1.11751711
Cr       0.00000000       0.00000000       2.48383838       0.00000000       0.00000000       1.11751711
2
Properties=species:S:1:pos:R:3:forces:R:3 energy=-12.083559207119608 pbc="F F F"
Cr       0.00000000       0.00000000       0.00000000       0.00000000       0.00000000      -0.64850843
Cr       0.00000000       0.00000000       2.54343434       0.00000000       0.00000000       0.64850843
2
Properties=species:S:1:pos:R:3:forces:R:3 energy=-12.110190979832227 pbc="F F F"
Cr       0.00000000       0.00000000       0.00000000       0.00000000       0.00000000      -0.26334810
Cr       0.00000000       0.00000000       2.60303030       0.00000000       0.00000000       0.26334810
2
Properties=species:S:1:pos:R:3:forces:R:3 energy=-12.116997268717192 pbc="F F F"
Cr       0.00000000       0.00000000       0.00000000       0.00000000       0.00000000       0.02027330
Cr       0.00000000       0.00000000       2.66262626       0.00000000       0.00000000      -0.02027330
2
Properties=species:S:1:pos:R:3:forces:R:3 energy=-12.109270663515904 pbc="F F F"
Cr       0.00000000       0.00000000       0.00000000       0.00000000       0.00000000       0.22691271
Cr       0.00000000       0.00000000       2.72222222       0.00000000       0.00000000      -0.22691271
2
Properties=species:S:1:pos:R:3:forces:R:3 energy=-12.091525814221704 pbc="F F F"
Cr       0.00000000       0.00000000       0.00000000       0.00000000       0.00000000       0.35487124
Cr       0.00000000       0.00000000       2.78181818       0.00000000       0.00000000      -0.35487124
2
Properties=species:S:1:pos:R:3:forces:R:3 energy=-12.06840068817182 pbc="F F F"
Cr       0.00000000       0.00000000       0.00000000       0.00000000       0.00000000       0.41228664
Cr       0.00000000       0.00000000       2.84141414       0.00000000       0.00000000      -0.41228664
2
Properties=species:S:1:pos:R:3:forces:R:3 energy=-12.043008629934683 pbc="F F F"
Cr       0.00000000       0.00000000       0.00000000       0.00000000       0.00000000       0.43794176
Cr       0.00000000       0.00000000       2.90101010       0.00000000       0.00000000      -0.43794176
2
Properties=species:S:1:pos:R:3:forces:R:3 energy=-12.016165223105755 pbc="F F F"
Cr       0.00000000       0.00000000       0.00000000       0.00000000       0.00000000       0.46463898
Cr       0.00000000       0.00000000       2.96060606       0.00000000       0.00000000      -0.46463898
2
Properties=species:S:1:pos:R:3:forces:R:3 energy=-11.987371097253565 pbc="F F F"
Cr       0.00000000       0.00000000       0.00000000       0.00000000       0.00000000       0.50374240
Cr       0.00000000       0.00000000       3.02020202       0.00000000       0.00000000      -0.50374240
2
Properties=species:S:1:pos:R:3:forces:R:3 energy=-11.955945926209909 pbc="F F F"
Cr       0.00000000       0.00000000       0.00000000       0.00000000       0.00000000       0.55155146
Cr       0.00000000       0.00000000       3.07979798       0.00000000       0.00000000      -0.55155146
2
Properties=species:S:1:pos:R:3:forces:R:3 energy=-11.921643739888733 pbc="F F F"
Cr       0.00000000       0.00000000       0.00000000       0.00000000       0.00000000       0.59872591
Cr       0.00000000       0.00000000       3.13939394       0.00000000       0.00000000      -0.59872591
2
Properties=species:S:1:pos:R:3:forces:R:3 energy=-11.88476977346066 pbc="F F F"
Cr       0.00000000       0.00000000       0.00000000       0.00000000       0.00000000       0.63661945
Cr       0.00000000       0.00000000       3.19898990       0.00000000       0.00000000      -0.63661945
2
Properties=species:S:1:pos:R:3:forces:R:3 energy=-11.846052434690476 pbc="F F F"
Cr       0.00000000       0.00000000       0.00000000       0.00000000       0.00000000       0.66009313
Cr       0.00000000       0.00000000       3.25858586       0.00000000       0.00000000      -0.66009313
2
Properties=species:S:1:pos:R:3:forces:R:3 energy=-11.806406490964319 pbc="F F F"
Cr       0.00000000       0.00000000       0.00000000       0.00000000       0.00000000       0.66784835
Cr       0.00000000       0.00000000       3.31818182       0.00000000       0.00000000      -0.66784835
2
Properties=species:S:1:pos:R:3:forces:R:3 energy=-11.76673139385846 pbc="F F F"
Cr       0.00000000       0.00000000       0.00000000       0.00000000       0.00000000       0.66149366
Cr       0.00000000       0.00000000       3.37777778       0.00000000       0.00000000      -0.66149366
2
Properties=species:S:1:pos:R:3:forces:R:3 energy=-11.727779073205411 pbc="F F F"
Cr       0.00000000       0.00000000       0.00000000       0.00000000       0.00000000       0.64422125
Cr       0.00000000       0.00000000       3.43737374       0.00000000       0.00000000      -0.64422125
2
Properties=species:S:1:pos:R:3:forces:R:3 energy=-11.690091279693036 pbc="F F F"
Cr       0.00000000       0.00000000       0.00000000       0.00000000       0.00000000       0.61959344
Cr       0.00000000       0.00000000       3.49696970       0.00000000       0.00000000      -0.61959344
2
Properties=species:S:1:pos:R:3:forces:R:3 energy=-11.654012141021761 pbc="F F F"
Cr       0.00000000       0.00000000       0.00000000       0.00000000       0.00000000       0.59072375
Cr       0.00000000       0.00000000       3.55656566       0.00000000       0.00000000      -0.59072375
2
Properties=species:S:1:pos:R:3:forces:R:3 energy=-11.619719740862987 pbc="F F F"
Cr       0.00000000       0.00000000       0.00000000       0.00000000       0.00000000       0.55990070
Cr       0.00000000       0.00000000       3.61616162       0.00000000       0.00000000      -0.55990070
2
Properties=species:S:1:pos:R:3:forces:R:3 energy=-11.58728537971522 pbc="F F F"
Cr       0.00000000       0.00000000       0.00000000       0.00000000       0.00000000       0.52858806
Cr       0.00000000       0.00000000       3.67575758       0.00000000       0.00000000      -0.52858806
2
Properties=species:S:1:pos:R:3:forces:R:3 energy=-11.556709814528105 pbc="F F F"
Cr       0.00000000       0.00000000       0.00000000       0.00000000       0.00000000       0.49762234
Cr       0.00000000       0.00000000       3.73535354       0.00000000       0.00000000      -0.49762234
2
Properties=species:S:1:pos:R:3:forces:R:3 energy=-11.527956814701534 pbc="F F F"
Cr       0.00000000       0.00000000       0.00000000       0.00000000       0.00000000       0.46745655
Cr       0.00000000       0.00000000       3.79494949       0.00000000       0.00000000      -0.46745655
2
Properties=species:S:1:pos:R:3:forces:R:3 energy=-11.500971294568952 pbc="F F F"
Cr       0.00000000       0.00000000       0.00000000       0.00000000       0.00000000       0.43834633
Cr       0.00000000       0.00000000       3.85454545       0.00000000       0.00000000      -0.43834633
2
Properties=species:S:1:pos:R:3:forces:R:3 energy=-11.475685003765028 pbc="F F F"
Cr       0.00000000       0.00000000       0.00000000       0.00000000       0.00000000       0.41047001
Cr       0.00000000       0.00000000       3.91414141       0.00000000       0.00000000      -0.41047001
2
Properties=species:S:1:pos:R:3:forces:R:3 energy=-11.452019331227811 pbc="F F F"
Cr       0.00000000       0.00000000       0.00000000       0.00000000       0.00000000       0.38395819
Cr       0.00000000       0.00000000       3.97373737       0.00000000       0.00000000      -0.38395819
2
Properties=species:S:1:pos:R:3:forces:R:3 energy=-11.429892044275386 pbc="F F F"
Cr       0.00000000       0.00000000       0.00000000       0.00000000       0.00000000       0.35889277
Cr       0.00000000       0.00000000       4.03333333       0.00000000       0.00000000      -0.35889277
2
Properties=species:S:1:pos:R:3:forces:R:3 energy=-11.409214231177948 pbc="F F F"
Cr       0.00000000       0.00000000       0.00000000       0.00000000       0.00000000       0.33526376
Cr       0.00000000       0.00000000       4.09292929       0.00000000       0.00000000      -0.33526376
2
Properties=species:S:1:pos:R:3:forces:R:3 energy=-11.38990447955967 pbc="F F F"
Cr       0.00000000       0.00000000       0.00000000       0.00000000       0.00000000       0.31296304
Cr       0.00000000       0.00000000       4.15252525       0.00000000       0.00000000      -0.31296304
2
Properties=species:S:1:pos:R:3:forces:R:3 energy=-11.37188969702448 pbc="F F F"
Cr       0.00000000       0.00000000       0.00000000       0.00000000       0.00000000       0.29178533
Cr       0.00000000       0.00000000       4.21212121       0.00000000       0.00000000      -0.29178533
2
Properties=species:S:1:pos:R:3:forces:R:3 energy=-11.35510866609192 pbc="F F F"
Cr       0.00000000       0.00000000       0.00000000       0.00000000       0.00000000       0.27146325
Cr       0.00000000       0.00000000       4.27171717       0.00000000       0.00000000      -0.27146325
2
Properties=species:S:1:pos:R:3:forces:R:3 energy=-11.339521492241278 pbc="F F F"
Cr       0.00000000       0.00000000       0.00000000       0.00000000       0.00000000       0.25173309
Cr       0.00000000       0.00000000       4.33131313       0.00000000       0.00000000      -0.25173309
2
Properties=species:S:1:pos:R:3:forces:R:3 energy=-11.325096892531096 pbc="F F F"
Cr       0.00000000       0.00000000       0.00000000       0.00000000       0.00000000       0.23239119
Cr       0.00000000       0.00000000       4.39090909       0.00000000       0.00000000      -0.23239119
2
Properties=species:S:1:pos:R:3:forces:R:3 energy=-11.311815823394916 pbc="F F F"
Cr       0.00000000       0.00000000       0.00000000       0.00000000       0.00000000       0.21335071
Cr       0.00000000       0.00000000       4.45050505       0.00000000       0.00000000      -0.21335071
2
Properties=species:S:1:pos:R:3:forces:R:3 energy=-11.299659874990565 pbc="F F F"
Cr       0.00000000       0.00000000       0.00000000       0.00000000       0.00000000       0.19465554
Cr       0.00000000       0.00000000       4.51010101       0.00000000       0.00000000      -0.19465554
2
Properties=species:S:1:pos:R:3:forces:R:3 energy=-11.288604291369003 pbc="F F F"
Cr       0.00000000       0.00000000       0.00000000       0.00000000       0.00000000       0.17645788
Cr       0.00000000       0.00000000       4.56969697       0.00000000       0.00000000      -0.17645788
2
Properties=species:S:1:pos:R:3:forces:R:3 energy=-11.278613227445328 pbc="F F F"
Cr       0.00000000       0.00000000       0.00000000       0.00000000       0.00000000       0.15897132
Cr       0.00000000       0.00000000       4.62929293       0.00000000       0.00000000      -0.15897132
2
Properties=species:S:1:pos:R:3:forces:R:3 energy=-11.26963852605957 pbc="F F F"
Cr       0.00000000       0.00000000       0.00000000       0.00000000       0.00000000       0.14240101
Cr       0.00000000       0.00000000       4.68888889       0.00000000       0.00000000      -0.14240101
2
Properties=species:S:1:pos:R:3:forces:R:3 energy=-11.261619702137585 pbc="F F F"
Cr       0.00000000       0.00000000       0.00000000       0.00000000       0.00000000       0.12687893
Cr       0.00000000       0.00000000       4.74848485       0.00000000       0.00000000      -0.12687893
2
Properties=species:S:1:pos:R:3:forces:R:3 energy=-11.254494281053066 pbc="F F F"
Cr       0.00000000       0.00000000       0.00000000       0.00000000       0.00000000       0.11243287
Cr       0.00000000       0.00000000       4.80808081       0.00000000       0.00000000      -0.11243287
2
Properties=species:S:1:pos:R:3:forces:R:3 energy=-11.248198847336534 pbc="F F F"
Cr       0.00000000       0.00000000       0.00000000       0.00000000       0.00000000       0.09898666
Cr       0.00000000       0.00000000       4.86767677       0.00000000       0.00000000      -0.09898666
2
Properties=species:S:1:pos:R:3:forces:R:3 energy=-11.242678524397693 pbc="F F F"
Cr       0.00000000       0.00000000       0.00000000       0.00000000       0.00000000       0.08640725
Cr       0.00000000       0.00000000       4.92727273       0.00000000       0.00000000      -0.08640725
2
Properties=species:S:1:pos:R:3:forces:R:3 energy=-11.23788509251938 pbc="F F F"
Cr       0.00000000       0.00000000       0.00000000       0.00000000       0.00000000       0.07456221
Cr       0.00000000       0.00000000       4.98686869       0.00000000       0.00000000      -0.07456221
2
Properties=species:S:1:pos:R:3:forces:R:3 energy=-11.233778024895255 pbc="F F F"
Cr       0.00000000       0.00000000       0.00000000       0.00000000       0.00000000       0.06338137
Cr       0.00000000       0.00000000       5.04646465       0.00000000       0.00000000      -0.06338137
2
Properties=species:S:1:pos:R:3:forces:R:3 energy=-11.230317786567015 pbc="F F F"
Cr       0.00000000       0.00000000       0.00000000       0.00000000       0.00000000       0.05288025
Cr       0.00000000       0.00000000       5.10606061       0.00000000       0.00000000      -0.05288025
2
Properties=species:S:1:pos:R:3:forces:R:3 energy=-11.227459367780428 pbc="F F F"
Cr       0.00000000       0.00000000       0.00000000       0.00000000       0.00000000       0.04317638
Cr       0.00000000       0.00000000       5.16565657       0.00000000       0.00000000      -0.04317638
2
Properties=species:S:1:pos:R:3:forces:R:3 energy=-11.22515037980454 pbc="F F F"
Cr       0.00000000       0.00000000       0.00000000       0.00000000       0.00000000       0.03449296
Cr       0.00000000       0.00000000       5.22525253       0.00000000       0.00000000      -0.03449296
2
Properties=species:S:1:pos:R:3:forces:R:3 energy=-11.223321591048398 pbc="F F F"
Cr       0.00000000       0.00000000       0.00000000       0.00000000       0.00000000       0.02717040
Cr       0.00000000       0.00000000       5.28484848       0.00000000       0.00000000      -0.02717040
2
Properties=species:S:1:pos:R:3:forces:R:3 energy=-11.221877537621642 pbc="F F F"
Cr       0.00000000       0.00000000       0.00000000       0.00000000       0.00000000       0.02159704
Cr       0.00000000       0.00000000       5.34444444       0.00000000       0.00000000      -0.02159704
2
Properties=species:S:1:pos:R:3:forces:R:3 energy=-11.220712769059993 pbc="F F F"
Cr       0.00000000       0.00000000       0.00000000       0.00000000       0.00000000       0.01768811
Cr       0.00000000       0.00000000       5.40404040       0.00000000       0.00000000      -0.01768811
2
Properties=species:S:1:pos:R:3:forces:R:3 energy=-11.219764409702536 pbc="F F F"
Cr       0.00000000       0.00000000       0.00000000       0.00000000       0.00000000       0.01401603
Cr       0.00000000       0.00000000       5.46363636       0.00000000       0.00000000      -0.01401603
2
Properties=species:S:1:pos:R:3:forces:R:3 energy=-11.21906561355467 pbc="F F F"
Cr       0.00000000       0.00000000       0.00000000       0.00000000       0.00000000       0.00930008
Cr       0.00000000       0.00000000       5.52323232       0.00000000       0.00000000      -0.00930008
2
Properties=species:S:1:pos:R:3:forces:R:3 energy=-11.218645528271294 pbc="F F F"
Cr       0.00000000       0.00000000       0.00000000       0.00000000       0.00000000       0.00504075
Cr       0.00000000       0.00000000       5.58282828       0.00000000       0.00000000      -0.00504075
2
Properties=species:S:1:pos:R:3:forces:R:3 energy=-11.218433924557331 pbc="F F F"
Cr       0.00000000       0.00000000       0.00000000       0.00000000       0.00000000       0.00228117
Cr       0.00000000       0.00000000       5.64242424       0.00000000       0.00000000      -0.00228117
2
Properties=species:S:1:pos:R:3:forces:R:3 energy=-11.218355730302308 pbc="F F F"
Cr       0.00000000       0.00000000       0.00000000       0.00000000       0.00000000       0.00039700
Cr       0.00000000       0.00000000       5.70202020       0.00000000       0.00000000      -0.00039700
2
Properties=species:S:1:pos:R:3:forces:R:3 energy=-11.218390171059255 pbc="F F F"
Cr       0.00000000       0.00000000       0.00000000       0.00000000       0.00000000      -0.00151323
Cr       0.00000000       0.00000000       5.76161616       0.00000000       0.00000000       0.00151323
2
Properties=species:S:1:pos:R:3:forces:R:3 energy=-11.218477324216893 pbc="F F F"
Cr       0.00000000       0.00000000       0.00000000       0.00000000       0.00000000      -0.00052402
Cr       0.00000000       0.00000000       5.82121212       0.00000000       0.00000000       0.00052402
2
Properties=species:S:1:pos:R:3:forces:R:3 energy=-11.218357985661772 pbc="F F F"
Cr       0.00000000       0.00000000       0.00000000       0.00000000       0.00000000       0.00487587
Cr       0.00000000       0.00000000       5.88080808       0.00000000       0.00000000      -0.00487587
2
Properties=species:S:1:pos:R:3:forces:R:3 energy=-11.217901703648803 pbc="F F F"
Cr       0.00000000       0.00000000       0.00000000       0.00000000       0.00000000       0.01014046
Cr       0.00000000       0.00000000       5.94040404       0.00000000       0.00000000      -0.01014046
2
Properties=species:S:1:pos:R:3:forces:R:3 energy=-11.217226054615065 pbc="F F F"
Cr       0.00000000       0.00000000       0.00000000       0.00000000       0.00000000       0.01175158
Cr       0.00000000       0.00000000       6.00000000       0.00000000       0.00000000      -0.01175158
