2
Properties=species:S:1:pos:R:3:forces:R:3 energy=34004.67437683425 pbc="F F F"
Cs       0.00000000       0.00000000       0.00000000       0.00000000       0.00000000 -167219.62500000
Cs       0.00000000       0.00000000       0.18000000       0.00000000       0.00000000  167219.62500000
2
Properties=species:S:1:pos:R:3:forces:R:3 energy=28058.68804870925 pbc="F F F"
Cs       0.00000000       0.00000000       0.00000000       0.00000000       0.00000000  -58035.28125000
Cs       0.00000000       0.00000000       0.23878788       0.00000000       0.00000000   58035.28125000
2
Properties=species:S:1:pos:R:3:forces:R:3 energy=25780.31304870925 pbc="F F F"
Cs       0.00000000       0.00000000       0.00000000       0.00000000       0.00000000  -25474.26171875
Cs       0.00000000       0.00000000       0.29757576       0.00000000       0.00000000   25474.26171875
2
Properties=species:S:1:pos:R:3:forces:R:3 energy=24646.60015808425 pbc="F F F"
Cs       0.00000000       0.00000000       0.00000000       0.00000000       0.00000000  -15177.44335938
Cs       0.00000000       0.00000000       0.35636364       0.00000000       0.00000000   15177.44335938
2
Properties=species:S:1:pos:R:3:forces:R:3 energy=23833.90484558425 pbc="F F F"
Cs       0.00000000       0.00000000       0.00000000       0.00000000       0.00000000  -13404.10156250
Cs       0.00000000       0.00000000       0.41515152       0.00000000       0.00000000   13404.10156250
2
Properties=species:S:1:pos:R:3:forces:R:3 energy=22989.87750183425 pbc="F F F"
Cs       0.00000000       0.00000000       0.00000000       0.00000000       0.00000000  -15833.92382812
Cs       0.00000000       0.00000000       0.47393939       0.00000000       0.00000000   15833.92382812
2
Properties=species:S:1:pos:R:3:forces:R:3 energy=21922.834533085042 pbc="F F F"
Cs       0.00000000       0.00000000       0.00000000       0.00000000       0.00000000  -20797.34765625
Cs       0.00000000       0.00000000       0.53272727       0.00000000       0.00000000   20797.34765625
2
Properties=species:S:1:pos:R:3:forces:R:3 energy=20513.311095585836 pbc="F F F"
Cs       0.00000000       0.00000000       0.00000000       0.00000000       0.00000000  -27347.49609375
Cs       0.00000000       0.00000000       0.59151515       0.00000000       0.00000000   27347.49609375
2
Properties=species:S:1:pos:R:3:forces:R:3 energy=18693.967345587418 pbc="F F F"
Cs       0.00000000       0.00000000       0.00000000       0.00000000       0.00000000  -34576.17187500
Cs       0.00000000       0.00000000       0.65030303       0.00000000       0.00000000   34576.17187500
2
Properties=species:S:1:pos:R:3:forces:R:3 energy=16456.418517465587 pbc="F F F"
Cs       0.00000000       0.00000000       0.00000000       0.00000000       0.00000000  -41364.97656250
Cs       0.00000000       0.00000000       0.70909091       0.00000000       0.00000000   41364.97656250
2
Properties=species:S:1:pos:R:3:forces:R:3 energy=13865.019103407045 pbc="F F F"
Cs       0.00000000       0.00000000       0.00000000       0.00000000       0.00000000  -46391.53906250
Cs       0.00000000       0.00000000       0.76787879       0.00000000       0.00000000   46391.53906250
2
Properties=species:S:1:pos:R:3:forces:R:3 energy=11062.323790914174 pbc="F F F"
Cs       0.00000000       0.00000000       0.00000000       0.00000000       0.00000000  -48352.66015625
Cs       0.00000000       0.00000000       0.82666667       0.00000000       0.00000000   48352.66015625
2
Properties=species:S:1:pos:R:3:forces:R:3 energy=8257.783751859593 pbc="F F F"
Cs       0.00000000       0.00000000       0.00000000       0.00000000       0.00000000  -46367.42968750
Cs       0.00000000       0.00000000       0.88545455       0.00000000       0.00000000   46367.42968750
2
Properties=species:S:1:pos:R:3:forces:R:3 energy=5689.245177653514 pbc="F F F"
Cs       0.00000000       0.00000000       0.00000000       0.00000000       0.00000000  -40410.30859375
Cs       0.00000000       0.00000000       0.94424242       0.00000000       0.00000000   40410.30859375
2
Properties=species:S:1:pos:R:3:forces:R:3 energy=3564.3652948584368 pbc="F F F"
Cs       0.00000000       0.00000000       0.00000000       0.00000000       0.00000000  -31532.04296875
Cs       0.00000000       0.00000000       1.00303030       0.00000000       0.00000000   31532.04296875
2
Properties=species:S:1:pos:R:3:forces:R:3 energy=2001.8355097251538 pbc="F F F"
Cs       0.00000000       0.00000000       0.00000000       0.00000000       0.00000000  -21637.09960938
Cs       0.00000000       0.00000000       1.06181818       0.00000000       0.00000000   21637.09960938
2
Properties=species:S:1:pos:R:3:forces:R:3 energy=999.490050771665 pbc="F F F"
Cs       0.00000000       0.00000000       0.00000000       0.00000000       0.00000000  -12783.66406250
Cs       0.00000000       0.00000000       1.12060606       0.00000000       0.00000000   12783.66406250
2
Properties=species:S:1:pos:R:3:forces:R:3 energy=450.6184077448565 pbc="F F F"
Cs       0.00000000       0.00000000       0.00000000       0.00000000       0.00000000   -6348.05273438
Cs       0.00000000       0.00000000       1.17939394       0.00000000       0.00000000    6348.05273438
2
Properties=species:S:1:pos:R:3:forces:R:3 energy=200.3019405119693 pbc="F F F"
Cs       0.00000000       0.00000000       0.00000000       0.00000000       0.00000000   -2575.48632812
Cs       0.00000000       0.00000000       1.23818182       0.00000000       0.00000000    2575.48632812
2
Properties=species:S:1:pos:R:3:forces:R:3 energy=107.34548153149947 pbc="F F F"
Cs       0.00000000       0.00000000       0.00000000       0.00000000       0.00000000    -847.89703369
Cs       0.00000000       0.00000000       1.29696970       0.00000000       0.00000000     847.89703369
2
Properties=species:S:1:pos:R:3:forces:R:3 energy=84.18709538497801 pbc="F F F"
Cs       0.00000000       0.00000000       0.00000000       0.00000000       0.00000000    -111.98745728
Cs       0.00000000       0.00000000       1.35575758       0.00000000       0.00000000     111.98745728
2
Properties=species:S:1:pos:R:3:forces:R:3 energy=78.79923233112841 pbc="F F F"
Cs       0.00000000       0.00000000       0.00000000       0.00000000       0.00000000    -161.98954773
Cs       0.00000000       0.00000000       1.41454545       0.00000000       0.00000000     161.98954773
2
Properties=species:S:1:pos:R:3:forces:R:3 energy=67.82980344410389 pbc="F F F"
Cs       0.00000000       0.00000000       0.00000000       0.00000000       0.00000000    -183.86033630
Cs       0.00000000       0.00000000       1.47333333       0.00000000       0.00000000     183.86033630
2
Properties=species:S:1:pos:R:3:forces:R:3 energy=57.774364608717576 pbc="F F F"
Cs       0.00000000       0.00000000       0.00000000       0.00000000       0.00000000    -157.25776672
Cs       0.00000000       0.00000000       1.53212121       0.00000000       0.00000000     157.25776672
2
Properties=species:S:1:pos:R:3:forces:R:3 energy=49.29628405402692 pbc="F F F"
Cs       0.00000000       0.00000000       0.00000000       0.00000000       0.00000000    -132.52172852
Cs       0.00000000       0.00000000       1.59090909       0.00000000       0.00000000     132.52172852
2
Properties=species:S:1:pos:R:3:forces:R:3 energy=42.05188045250225 pbc="F F F"
Cs       0.00000000       0.00000000       0.00000000       0.00000000       0.00000000    -114.72196198
Cs       0.00000000       0.00000000       1.64969697       0.00000000       0.00000000     114.72196198
2
Properties=species:S:1:pos:R:3:forces:R:3 energy=35.75233544952031 pbc="F F F"
Cs       0.00000000       0.00000000       0.00000000       0.00000000       0.00000000     -99.89057159
Cs       0.00000000       0.00000000       1.70848485       0.00000000       0.00000000      99.89057159
2
Properties=species:S:1:pos:R:3:forces:R:3 energy=30.27679944520955 pbc="F F F"
Cs       0.00000000       0.00000000       0.00000000       0.00000000       0.00000000     -86.63862610
Cs       0.00000000       0.00000000       1.76727273       0.00000000       0.00000000      86.63862610
2
Properties=species:S:1:pos:R:3:forces:R:3 energy=25.53904884677853 pbc="F F F"
Cs       0.00000000       0.00000000       0.00000000       0.00000000       0.00000000     -74.72841644
Cs       0.00000000       0.00000000       1.82606061       0.00000000       0.00000000      74.72841644
2
Properties=species:S:1:pos:R:3:forces:R:3 energy=21.474111738318676 pbc="F F F"
Cs       0.00000000       0.00000000       0.00000000       0.00000000       0.00000000     -63.67710876
Cs       0.00000000       0.00000000       1.88484848       0.00000000       0.00000000      63.67710876
2
Properties=species:S:1:pos:R:3:forces:R:3 energy=18.036030568777566 pbc="F F F"
Cs       0.00000000       0.00000000       0.00000000       0.00000000       0.00000000     -53.47727585
Cs       0.00000000       0.00000000       1.94363636       0.00000000       0.00000000      53.47727585
2
Properties=species:S:1:pos:R:3:forces:R:3 energy=15.156935207582984 pbc="F F F"
Cs       0.00000000       0.00000000       0.00000000       0.00000000       0.00000000     -44.77150726
Cs       0.00000000       0.00000000       2.00242424       0.00000000       0.00000000      44.77150726
2
Properties=species:S:1:pos:R:3:forces:R:3 energy=12.734922710426998 pbc="F F F"
Cs       0.00000000       0.00000000       0.00000000       0.00000000       0.00000000     -37.93436813
Cs       0.00000000       0.00000000       2.06121212       0.00000000       0.00000000      37.93436813
2
Properties=species:S:1:pos:R:3:forces:R:3 energy=10.664737009353454 pbc="F F F"
Cs       0.00000000       0.00000000       0.00000000       0.00000000       0.00000000     -32.72069550
Cs       0.00000000       0.00000000       2.12000000       0.00000000       0.00000000      32.72069550
2
Properties=species:S:1:pos:R:3:forces:R:3 energy=8.867493998613423 pbc="F F F"
Cs       0.00000000       0.00000000       0.00000000       0.00000000       0.00000000     -28.54238701
Cs       0.00000000       0.00000000       2.17878788       0.00000000       0.00000000      28.54238701
2
Properties=species:S:1:pos:R:3:forces:R:3 energy=7.299496341620018 pbc="F F F"
Cs       0.00000000       0.00000000       0.00000000       0.00000000       0.00000000     -24.85318756
Cs       0.00000000       0.00000000       2.23757576       0.00000000       0.00000000      24.85318756
2
Properties=species:S:1:pos:R:3:forces:R:3 energy=5.9406038863291455 pbc="F F F"
Cs       0.00000000       0.00000000       0.00000000       0.00000000       0.00000000     -21.41679192
Cs       0.00000000       0.00000000       2.29636364       0.00000000       0.00000000      21.41679192
2
Properties=species:S:1:pos:R:3:forces:R:3 energy=4.775945059209432 pbc="F F F"
Cs       0.00000000       0.00000000       0.00000000       0.00000000       0.00000000     -18.25978661
Cs       0.00000000       0.00000000       2.35515152       0.00000000       0.00000000      18.25978661
2
Properties=species:S:1:pos:R:3:forces:R:3 energy=3.786671227995422 pbc="F F F"
Cs       0.00000000       0.00000000       0.00000000       0.00000000       0.00000000     -15.45843029
Cs       0.00000000       0.00000000       2.41393939       0.00000000       0.00000000      15.45843029
2
Properties=species:S:1:pos:R:3:forces:R:3 energy=2.9510803716187075 pbc="F F F"
Cs       0.00000000       0.00000000       0.00000000       0.00000000       0.00000000     -13.02928352
Cs       0.00000000       0.00000000       2.47272727       0.00000000       0.00000000      13.02928352
2
Properties=species:S:1:pos:R:3:forces:R:3 energy=2.2480443393629534 pbc="F F F"
Cs       0.00000000       0.00000000       0.00000000       0.00000000       0.00000000     -10.94206524
Cs       0.00000000       0.00000000       2.53151515       0.00000000       0.00000000      10.94206524
2
Properties=species:S:1:pos:R:3:forces:R:3 energy=1.6585941118354584 pbc="F F F"
Cs       0.00000000       0.00000000       0.00000000       0.00000000       0.00000000      -9.15973949
Cs       0.00000000       0.00000000       2.59030303       0.00000000       0.00000000       9.15973949
2
Properties=species:S:1:pos:R:3:forces:R:3 energy=1.1656377311972321 pbc="F F F"
Cs       0.00000000       0.00000000       0.00000000       0.00000000       0.00000000      -7.65529823
Cs       0.00000000       0.00000000       2.64909091       0.00000000       0.00000000       7.65529823
2
Properties=species:S:1:pos:R:3:forces:R:3 energy=0.7534937930313603 pbc="F F F"
Cs       0.00000000       0.00000000       0.00000000       0.00000000       0.00000000      -6.40681887
Cs       0.00000000       0.00000000       2.70787879       0.00000000       0.00000000       6.40681887
2
Properties=species:S:1:pos:R:3:forces:R:3 energy=0.40788398942676324 pbc="F F F"
Cs       0.00000000       0.00000000       0.00000000       0.00000000       0.00000000      -5.38599253
Cs       0.00000000       0.00000000       2.76666667       0.00000000       0.00000000       5.38599253
2
Properties=species:S:1:pos:R:3:forces:R:3 energy=0.11651025916964527 pbc="F F F"
Cs       0.00000000       0.00000000       0.00000000       0.00000000       0.00000000      -4.55495930
Cs       0.00000000       0.00000000       2.82545455       0.00000000       0.00000000       4.55495930
2
Properties=species:S:1:pos:R:3:forces:R:3 energy=-0.1305993696224462 pbc="F F F"
Cs       0.00000000       0.00000000       0.00000000       0.00000000       0.00000000      -3.87380028
Cs       0.00000000       0.00000000       2.88424242       0.00000000       0.00000000       3.87380028
2
Properties=species:S:1:pos:R:3:forces:R:3 energy=-0.34124844155961326 pbc="F F F"
Cs       0.00000000       0.00000000       0.00000000       0.00000000       0.00000000      -3.31003881
Cs       0.00000000       0.00000000       2.94303030       0.00000000       0.00000000       3.31003881
2
Properties=species:S:1:pos:R:3:forces:R:3 energy=-0.5216377073033585 pbc="F F F"
Cs       0.00000000       0.00000000       0.00000000       0.00000000       0.00000000      -2.84128714
Cs       0.00000000       0.00000000       3.00181818       0.00000000       0.00000000       2.84128714
2
Properties=species:S:1:pos:R:3:forces:R:3 energy=-0.6768658181298208 pbc="F F F"
Cs       0.00000000       0.00000000       0.00000000       0.00000000       0.00000000      -2.45175648
Cs       0.00000000       0.00000000       3.06060606       0.00000000       0.00000000       2.45175648
2
Properties=species:S:1:pos:R:3:forces:R:3 energy=-0.8111970614285905 pbc="F F F"
Cs       0.00000000       0.00000000       0.00000000       0.00000000       0.00000000      -2.12819624
Cs       0.00000000       0.00000000       3.11939394       0.00000000       0.00000000       2.12819624
2
Properties=species:S:1:pos:R:3:forces:R:3 energy=-0.928140887408044 pbc="F F F"
Cs       0.00000000       0.00000000       0.00000000       0.00000000       0.00000000      -1.85824394
Cs       0.00000000       0.00000000       3.17818182       0.00000000       0.00000000       1.85824394
2
Properties=species:S:1:pos:R:3:forces:R:3 energy=-1.0305065657626482 pbc="F F F"
Cs       0.00000000       0.00000000       0.00000000       0.00000000       0.00000000      -1.63044894
Cs       0.00000000       0.00000000       3.23696970       0.00000000       0.00000000       1.63044894
2
Properties=species:S:1:pos:R:3:forces:R:3 energy=-1.1204738203448417 pbc="F F F"
Cs       0.00000000       0.00000000       0.00000000       0.00000000       0.00000000      -1.43500566
Cs       0.00000000       0.00000000       3.29575758       0.00000000       0.00000000       1.43500566
2
Properties=species:S:1:pos:R:3:forces:R:3 energy=-1.1997165072190312 pbc="F F F"
Cs       0.00000000       0.00000000       0.00000000       0.00000000       0.00000000      -1.26459193
Cs       0.00000000       0.00000000       3.35454545       0.00000000       0.00000000       1.26459193
2
Properties=species:S:1:pos:R:3:forces:R:3 energy=-1.2695593136887968 pbc="F F F"
Cs       0.00000000       0.00000000       0.00000000       0.00000000       0.00000000      -1.11468494
Cs       0.00000000       0.00000000       3.41333333       0.00000000       0.00000000       1.11468494
2
Properties=species:S:1:pos:R:3:forces:R:3 energy=-1.331132021453214 pbc="F F F"
Cs       0.00000000       0.00000000       0.00000000       0.00000000       0.00000000      -0.98296016
Cs       0.00000000       0.00000000       3.47212121       0.00000000       0.00000000       0.98296016
2
Properties=species:S:1:pos:R:3:forces:R:3 energy=-1.3854614169690973 pbc="F F F"
Cs       0.00000000       0.00000000       0.00000000       0.00000000       0.00000000      -0.86805737
Cs       0.00000000       0.00000000       3.53090909       0.00000000       0.00000000       0.86805737
2
Properties=species:S:1:pos:R:3:forces:R:3 energy=-1.4334956069782467 pbc="F F F"
Cs       0.00000000       0.00000000       0.00000000       0.00000000       0.00000000      -0.76849735
Cs       0.00000000       0.00000000       3.58969697       0.00000000       0.00000000       0.76849735
2
Properties=species:S:1:pos:R:3:forces:R:3 energy=-1.4760804269474495 pbc="F F F"
Cs       0.00000000       0.00000000       0.00000000       0.00000000       0.00000000      -0.68230802
Cs       0.00000000       0.00000000       3.64848485       0.00000000       0.00000000       0.68230802
2
Properties=species:S:1:pos:R:3:forces:R:3 energy=-1.5139379873561392 pbc="F F F"
Cs       0.00000000       0.00000000       0.00000000       0.00000000       0.00000000      -0.60733730
Cs       0.00000000       0.00000000       3.70727273       0.00000000       0.00000000       0.60733730
2
Properties=species:S:1:pos:R:3:forces:R:3 energy=-1.5476719109855799 pbc="F F F"
Cs       0.00000000       0.00000000       0.00000000       0.00000000       0.00000000      -0.54172516
Cs       0.00000000       0.00000000       3.76606061       0.00000000       0.00000000       0.54172516
2
Properties=species:S:1:pos:R:3:forces:R:3 energy=-1.5777869038331969 pbc="F F F"
Cs       0.00000000       0.00000000       0.00000000       0.00000000       0.00000000      -0.48403913
Cs       0.00000000       0.00000000       3.82484848       0.00000000       0.00000000       0.48403913
2
Properties=species:S:1:pos:R:3:forces:R:3 energy=-1.604713784311649 pbc="F F F"
Cs       0.00000000       0.00000000       0.00000000       0.00000000       0.00000000      -0.43300727
Cs       0.00000000       0.00000000       3.88363636       0.00000000       0.00000000       0.43300727
2
Properties=species:S:1:pos:R:3:forces:R:3 energy=-1.6288004486854 pbc="F F F"
Cs       0.00000000       0.00000000       0.00000000       0.00000000       0.00000000      -0.38718700
Cs       0.00000000       0.00000000       3.94242424       0.00000000       0.00000000       0.38718700
2
Properties=species:S:1:pos:R:3:forces:R:3 energy=-1.6503059058545078 pbc="F F F"
Cs       0.00000000       0.00000000       0.00000000       0.00000000       0.00000000      -0.34488606
Cs       0.00000000       0.00000000       4.00121212       0.00000000       0.00000000       0.34488606
2
Properties=species:S:1:pos:R:3:forces:R:3 energy=-1.669385997582455 pbc="F F F"
Cs       0.00000000       0.00000000       0.00000000       0.00000000       0.00000000      -0.30439919
Cs       0.00000000       0.00000000       4.06000000       0.00000000       0.00000000       0.30439919
2
Properties=species:S:1:pos:R:3:forces:R:3 energy=-1.6861046208004344 pbc="F F F"
Cs       0.00000000       0.00000000       0.00000000       0.00000000       0.00000000      -0.26435876
Cs       0.00000000       0.00000000       4.11878788       0.00000000       0.00000000       0.26435876
2
Properties=species:S:1:pos:R:3:forces:R:3 energy=-1.7004606902895854 pbc="F F F"
Cs       0.00000000       0.00000000       0.00000000       0.00000000       0.00000000      -0.22395128
Cs       0.00000000       0.00000000       4.17757576       0.00000000       0.00000000       0.22395128
2
Properties=species:S:1:pos:R:3:forces:R:3 energy=-1.7124229739280763 pbc="F F F"
Cs       0.00000000       0.00000000       0.00000000       0.00000000       0.00000000      -0.18290462
Cs       0.00000000       0.00000000       4.23636364       0.00000000       0.00000000       0.18290462
2
Properties=species:S:1:pos:R:3:forces:R:3 energy=-1.7219547076175055 pbc="F F F"
Cs       0.00000000       0.00000000       0.00000000       0.00000000       0.00000000      -0.14128129
Cs       0.00000000       0.00000000       4.29515152       0.00000000       0.00000000       0.14128129
2
Properties=species:S:1:pos:R:3:forces:R:3 energy=-1.7290255526418123 pbc="F F F"
Cs       0.00000000       0.00000000       0.00000000       0.00000000       0.00000000      -0.09920169
Cs       0.00000000       0.00000000       4.35393939       0.00000000       0.00000000       0.09920169
2
Properties=species:S:1:pos:R:3:forces:R:3 energy=-1.733608817799658 pbc="F F F"
Cs       0.00000000       0.00000000       0.00000000       0.00000000       0.00000000      -0.05662703
Cs       0.00000000       0.00000000       4.41272727       0.00000000       0.00000000       0.05662703
2
Properties=species:S:1:pos:R:3:forces:R:3 energy=-1.7356684501287512 pbc="F F F"
Cs       0.00000000       0.00000000       0.00000000       0.00000000       0.00000000      -0.01328253
Cs       0.00000000       0.00000000       4.47151515       0.00000000       0.00000000       0.01328253
2
Properties=species:S:1:pos:R:3:forces:R:3 energy=-1.7351465602800842 pbc="F F F"
Cs       0.00000000       0.00000000       0.00000000       0.00000000       0.00000000       0.03129094
Cs       0.00000000       0.00000000       4.53030303       0.00000000       0.00000000      -0.03129094
2
Properties=species:S:1:pos:R:3:forces:R:3 energy=-1.7319559847766433 pbc="F F F"
Cs       0.00000000       0.00000000       0.00000000       0.00000000       0.00000000       0.07756673
Cs       0.00000000       0.00000000       4.58909091       0.00000000       0.00000000      -0.07756673
2
Properties=species:S:1:pos:R:3:forces:R:3 energy=-1.7259875430689486 pbc="F F F"
Cs       0.00000000       0.00000000       0.00000000       0.00000000       0.00000000       0.12582499
Cs       0.00000000       0.00000000       4.64787879       0.00000000       0.00000000      -0.12582499
2
Properties=species:S:1:pos:R:3:forces:R:3 energy=-1.7171238593970735 pbc="F F F"
Cs       0.00000000       0.00000000       0.00000000       0.00000000       0.00000000       0.17599456
Cs       0.00000000       0.00000000       4.70666667       0.00000000       0.00000000      -0.17599456
2
Properties=species:S:1:pos:R:3:forces:R:3 energy=-1.7052650999979668 pbc="F F F"
Cs       0.00000000       0.00000000       0.00000000       0.00000000       0.00000000       0.22766994
Cs       0.00000000       0.00000000       4.76545455       0.00000000       0.00000000      -0.22766994
2
Properties=species:S:1:pos:R:3:forces:R:3 energy=-1.6903331646536675 pbc="F F F"
Cs       0.00000000       0.00000000       0.00000000       0.00000000       0.00000000       0.28047311
Cs       0.00000000       0.00000000       4.82424242       0.00000000       0.00000000      -0.28047311
2
Properties=species:S:1:pos:R:3:forces:R:3 energy=-1.6722619144176447 pbc="F F F"
Cs       0.00000000       0.00000000       0.00000000       0.00000000       0.00000000       0.33474737
Cs       0.00000000       0.00000000       4.88303030       0.00000000       0.00000000      -0.33474737
2
Properties=species:S:1:pos:R:3:forces:R:3 energy=-1.6509067519290233 pbc="F F F"
Cs       0.00000000       0.00000000       0.00000000       0.00000000       0.00000000       0.39261687
Cs       0.00000000       0.00000000       4.94181818       0.00000000       0.00000000      -0.39261687
2
Properties=species:S:1:pos:R:3:forces:R:3 energy=-1.6259389046841026 pbc="F F F"
Cs       0.00000000       0.00000000       0.00000000       0.00000000       0.00000000       0.45874193
Cs       0.00000000       0.00000000       5.00060606       0.00000000       0.00000000      -0.45874193
2
Properties=species:S:1:pos:R:3:forces:R:3 energy=-1.5966657894771843 pbc="F F F"
Cs       0.00000000       0.00000000       0.00000000       0.00000000       0.00000000       0.54028457
Cs       0.00000000       0.00000000       5.05939394       0.00000000       0.00000000      -0.54028457
2
Properties=species:S:1:pos:R:3:forces:R:3 energy=-1.5619680786725356 pbc="F F F"
Cs       0.00000000       0.00000000       0.00000000       0.00000000       0.00000000       0.64445233
Cs       0.00000000       0.00000000       5.11818182       0.00000000       0.00000000      -0.64445233
2
Properties=species:S:1:pos:R:3:forces:R:3 energy=-1.520417938614497 pbc="F F F"
Cs       0.00000000       0.00000000       0.00000000       0.00000000       0.00000000       0.77245998
Cs       0.00000000       0.00000000       5.17696970       0.00000000       0.00000000      -0.77245998
2
Properties=species:S:1:pos:R:3:forces:R:3 energy=-1.4709786785656611 pbc="F F F"
Cs       0.00000000       0.00000000       0.00000000       0.00000000       0.00000000       0.90807605
Cs       0.00000000       0.00000000       5.23575758       0.00000000       0.00000000      -0.90807605
2
Properties=species:S:1:pos:R:3:forces:R:3 energy=-1.4143322724610297 pbc="F F F"
Cs       0.00000000       0.00000000       0.00000000       0.00000000       0.00000000       1.00863576
Cs       0.00000000       0.00000000       5.29454545       0.00000000       0.00000000      -1.00863576
2
Properties=species:S:1:pos:R:3:forces:R:3 energy=-1.3539134067797716 pbc="F F F"
Cs       0.00000000       0.00000000       0.00000000       0.00000000       0.00000000       1.03509116
Cs       0.00000000       0.00000000       5.35333333       0.00000000       0.00000000      -1.03509116
2
Properties=species:S:1:pos:R:3:forces:R:3 energy=-1.292815765743956 pbc="F F F"
Cs       0.00000000       0.00000000       0.00000000       0.00000000       0.00000000       1.05793035
Cs       0.00000000       0.00000000       5.41212121       0.00000000       0.00000000      -1.05793035
2
Properties=species:S:1:pos:R:3:forces:R:3 energy=-1.2261810533816977 pbc="F F F"
Cs       0.00000000       0.00000000       0.00000000       0.00000000       0.00000000       1.24037182
Cs       0.00000000       0.00000000       5.47090909       0.00000000       0.00000000      -1.24037182
2
Properties=species:S:1:pos:R:3:forces:R:3 energy=-1.1456625528982929 pbc="F F F"
Cs       0.00000000       0.00000000       0.00000000       0.00000000       0.00000000       1.47954941
Cs       0.00000000       0.00000000       5.52969697       0.00000000       0.00000000      -1.47954941
2
Properties=species:S:1:pos:R:3:forces:R:3 energy=-1.0570132029362456 pbc="F F F"
Cs       0.00000000       0.00000000       0.00000000       0.00000000       0.00000000       1.49136543
Cs       0.00000000       0.00000000       5.58848485       0.00000000       0.00000000      -1.49136543
2
Properties=species:S:1:pos:R:3:forces:R:3 energy=-0.9731861815497798 pbc="F F F"
Cs       0.00000000       0.00000000       0.00000000       0.00000000       0.00000000       1.37367642
Cs       0.00000000       0.00000000       5.64727273       0.00000000       0.00000000      -1.37367642
2
Properties=species:S:1:pos:R:3:forces:R:3 energy=-0.888355109947934 pbc="F F F"
Cs       0.00000000       0.00000000       0.00000000       0.00000000       0.00000000       1.61892056
Cs       0.00000000       0.00000000       5.70606061       0.00000000       0.00000000      -1.61892056
2
Properties=species:S:1:pos:R:3:forces:R:3 energy=-0.7696559026229213 pbc="F F F"
Cs       0.00000000       0.00000000       0.00000000       0.00000000       0.00000000       2.46578050
Cs       0.00000000       0.00000000       5.76484848       0.00000000       0.00000000      -2.46578050
2
Properties=species:S:1:pos:R:3:forces:R:3 energy=-0.6065958727027828 pbc="F F F"
Cs       0.00000000       0.00000000       0.00000000       0.00000000       0.00000000       2.89152598
Cs       0.00000000       0.00000000       5.82363636       0.00000000       0.00000000      -2.89152598
2
Properties=species:S:1:pos:R:3:forces:R:3 energy=-0.45833037498254 pbc="F F F"
Cs       0.00000000       0.00000000       0.00000000       0.00000000       0.00000000       1.97362411
Cs       0.00000000       0.00000000       5.88242424       0.00000000       0.00000000      -1.97362411
2
Properties=species:S:1:pos:R:3:forces:R:3 energy=-0.3843455763082893 pbc="F F F"
Cs       0.00000000       0.00000000       0.00000000       0.00000000       0.00000000       0.57416385
Cs       0.00000000       0.00000000       5.94121212       0.00000000       0.00000000      -0.57416385
2
Properties=species:S:1:pos:R:3:forces:R:3 energy=-0.37427613180055985 pbc="F F F"
Cs       0.00000000       0.00000000       0.00000000       0.00000000       0.00000000      -0.02732363
Cs       0.00000000       0.00000000       6.00000000       0.00000000       0.00000000       0.02732363
