2
Properties=species:S:1:pos:R:3:forces:R:3 energy=73206.56500183426 pbc="F F F"
Cs       0.00000000       0.00000000       0.00000000       0.00000000       0.00000000 -1196552.25000000
Cs       0.00000000       0.00000000       0.10000000       0.00000000       0.00000000 1196552.25000000
2
Properties=species:S:1:pos:R:3:forces:R:3 energy=38254.66656433425 pbc="F F F"
Cs       0.00000000       0.00000000       0.00000000       0.00000000       0.00000000 -257104.76562500
Cs       0.00000000       0.00000000       0.15959596       0.00000000       0.00000000  257104.76562500
2
Properties=species:S:1:pos:R:3:forces:R:3 energy=29400.55718933425 pbc="F F F"
Cs       0.00000000       0.00000000       0.00000000       0.00000000       0.00000000  -80426.89062500
Cs       0.00000000       0.00000000       0.21919192       0.00000000       0.00000000   80426.89062500
2
Properties=species:S:1:pos:R:3:forces:R:3 energy=26318.83843933425 pbc="F F F"
Cs       0.00000000       0.00000000       0.00000000       0.00000000       0.00000000  -32246.66210938
Cs       0.00000000       0.00000000       0.27878788       0.00000000       0.00000000   32246.66210938
2
Properties=species:S:1:pos:R:3:forces:R:3 energy=24935.50445495925 pbc="F F F"
Cs       0.00000000       0.00000000       0.00000000       0.00000000       0.00000000  -17081.29882812
Cs       0.00000000       0.00000000       0.33838384       0.00000000       0.00000000   17081.29882812
2
Properties=species:S:1:pos:R:3:forces:R:3 energy=24063.06890808425 pbc="F F F"
Cs       0.00000000       0.00000000       0.00000000       0.00000000       0.00000000  -13373.30859375
Cs       0.00000000       0.00000000       0.39797980       0.00000000       0.00000000   13373.30859375
2
Properties=species:S:1:pos:R:3:forces:R:3 energy=23240.52398620925 pbc="F F F"
Cs       0.00000000       0.00000000       0.00000000       0.00000000       0.00000000  -14853.82031250
Cs       0.00000000       0.00000000       0.45757576       0.00000000       0.00000000   14853.82031250
2
Properties=species:S:1:pos:R:3:forces:R:3 energy=22234.606017460042 pbc="F F F"
Cs       0.00000000       0.00000000       0.00000000       0.00000000       0.00000000  -19294.85546875
Cs       0.00000000       0.00000000       0.51717172       0.00000000       0.00000000   19294.85546875
2
Properties=species:S:1:pos:R:3:forces:R:3 energy=20903.764220585836 pbc="F F F"
Cs       0.00000000       0.00000000       0.00000000       0.00000000       0.00000000  -25602.44726562
Cs       0.00000000       0.00000000       0.57676768       0.00000000       0.00000000   25602.44726562
2
Properties=species:S:1:pos:R:3:forces:R:3 energy=19164.152892462418 pbc="F F F"
Cs       0.00000000       0.00000000       0.00000000       0.00000000       0.00000000  -32856.42187500
Cs       0.00000000       0.00000000       0.63636364       0.00000000       0.00000000   32856.42187500
2
Properties=species:S:1:pos:R:3:forces:R:3 energy=16990.570861214794 pbc="F F F"
Cs       0.00000000       0.00000000       0.00000000       0.00000000       0.00000000  -39953.09765625
Cs       0.00000000       0.00000000       0.69595960       0.00000000       0.00000000   39953.09765625
2
Properties=species:S:1:pos:R:3:forces:R:3 energy=14431.584533093754 pbc="F F F"
Cs       0.00000000       0.00000000       0.00000000       0.00000000       0.00000000  -45551.39453125
Cs       0.00000000       0.00000000       0.75555556       0.00000000       0.00000000   45551.39453125
2
Properties=species:S:1:pos:R:3:forces:R:3 energy=11618.784728411005 pbc="F F F"
Cs       0.00000000       0.00000000       0.00000000       0.00000000       0.00000000  -48261.55468750
Cs       0.00000000       0.00000000       0.81515152       0.00000000       0.00000000   48261.55468750
2
Properties=species:S:1:pos:R:3:forces:R:3 energy=8757.994689358009 pbc="F F F"
Cs       0.00000000       0.00000000       0.00000000       0.00000000       0.00000000  -47038.38281250
Cs       0.00000000       0.00000000       0.87474747       0.00000000       0.00000000   47038.38281250
2
Properties=species:S:1:pos:R:3:forces:R:3 energy=6095.460997963638 pbc="F F F"
Cs       0.00000000       0.00000000       0.00000000       0.00000000       0.00000000  -41659.46875000
Cs       0.00000000       0.00000000       0.93434343       0.00000000       0.00000000   41659.46875000
2
Properties=species:S:1:pos:R:3:forces:R:3 energy=3857.855773370894 pbc="F F F"
Cs       0.00000000       0.00000000       0.00000000       0.00000000       0.00000000  -33025.62890625
Cs       0.00000000       0.00000000       0.99393939       0.00000000       0.00000000   33025.62890625
2
Properties=species:S:1:pos:R:3:forces:R:3 energy=2186.742980424319 pbc="F F F"
Cs       0.00000000       0.00000000       0.00000000       0.00000000       0.00000000  -23011.92187500
Cs       0.00000000       0.00000000       1.05353535       0.00000000       0.00000000   23011.92187500
2
Properties=species:S:1:pos:R:3:forces:R:3 energy=1098.796935532538 pbc="F F F"
Cs       0.00000000       0.00000000       0.00000000       0.00000000       0.00000000  -13793.47363281
Cs       0.00000000       0.00000000       1.11313131       0.00000000       0.00000000   13793.47363281
2
Properties=species:S:1:pos:R:3:forces:R:3 energy=494.88931228112034 pbc="F F F"
Cs       0.00000000       0.00000000       0.00000000       0.00000000       0.00000000   -6938.62548828
Cs       0.00000000       0.00000000       1.17272727       0.00000000       0.00000000    6938.62548828
2
Properties=species:S:1:pos:R:3:forces:R:3 energy=216.17387348982402 pbc="F F F"
Cs       0.00000000       0.00000000       0.00000000       0.00000000       0.00000000   -2846.29638672
Cs       0.00000000       0.00000000       1.23232323       0.00000000       0.00000000    2846.29638672
2
Properties=species:S:1:pos:R:3:forces:R:3 energy=111.88056148280243 pbc="F F F"
Cs       0.00000000       0.00000000       0.00000000       0.00000000       0.00000000    -948.38647461
Cs       0.00000000       0.00000000       1.29191919       0.00000000       0.00000000     948.38647461
2
Properties=species:S:1:pos:R:3:forces:R:3 energy=84.70278141300666 pbc="F F F"
Cs       0.00000000       0.00000000       0.00000000       0.00000000       0.00000000    -131.66105652
Cs       0.00000000       0.00000000       1.35151515       0.00000000       0.00000000     131.66105652
2
Properties=species:S:1:pos:R:3:forces:R:3 energy=79.33801253640316 pbc="F F F"
Cs       0.00000000       0.00000000       0.00000000       0.00000000       0.00000000    -151.40596008
Cs       0.00000000       0.00000000       1.41111111       0.00000000       0.00000000     151.40596008
2
Properties=species:S:1:pos:R:3:forces:R:3 energy=68.3140487380612 pbc="F F F"
Cs       0.00000000       0.00000000       0.00000000       0.00000000       0.00000000    -184.87933350
Cs       0.00000000       0.00000000       1.47070707       0.00000000       0.00000000     184.87933350
2
Properties=species:S:1:pos:R:3:forces:R:3 energy=58.0610886929581 pbc="F F F"
Cs       0.00000000       0.00000000       0.00000000       0.00000000       0.00000000    -158.13265991
Cs       0.00000000       0.00000000       1.53030303       0.00000000       0.00000000     158.13265991
2
Properties=species:S:1:pos:R:3:forces:R:3 energy=49.43023333064425 pbc="F F F"
Cs       0.00000000       0.00000000       0.00000000       0.00000000       0.00000000    -132.87660217
Cs       0.00000000       0.00000000       1.58989899       0.00000000       0.00000000     132.87660217
2
Properties=species:S:1:pos:R:3:forces:R:3 energy=42.07508143968787 pbc="F F F"
Cs       0.00000000       0.00000000       0.00000000       0.00000000       0.00000000    -114.77642059
Cs       0.00000000       0.00000000       1.64949495       0.00000000       0.00000000     114.77642059
2
Properties=species:S:1:pos:R:3:forces:R:3 energy=35.69185724223891 pbc="F F F"
Cs       0.00000000       0.00000000       0.00000000       0.00000000       0.00000000     -99.74641418
Cs       0.00000000       0.00000000       1.70909091       0.00000000       0.00000000      99.74641418
2
Properties=species:S:1:pos:R:3:forces:R:3 energy=30.154465927309737 pbc="F F F"
Cs       0.00000000       0.00000000       0.00000000       0.00000000       0.00000000     -86.33782196
Cs       0.00000000       0.00000000       1.76868687       0.00000000       0.00000000      86.33782196
2
Properties=species:S:1:pos:R:3:forces:R:3 energy=25.373470020454555 pbc="F F F"
Cs       0.00000000       0.00000000       0.00000000       0.00000000       0.00000000     -74.29790497
Cs       0.00000000       0.00000000       1.82828283       0.00000000       0.00000000      74.29790497
2
Properties=species:S:1:pos:R:3:forces:R:3 energy=21.281995981553756 pbc="F F F"
Cs       0.00000000       0.00000000       0.00000000       0.00000000       0.00000000     -63.12644196
Cs       0.00000000       0.00000000       1.88787879       0.00000000       0.00000000      63.12644196
2
Properties=species:S:1:pos:R:3:forces:R:3 energy=17.83197672959116 pbc="F F F"
Cs       0.00000000       0.00000000       0.00000000       0.00000000       0.00000000     -52.85600662
Cs       0.00000000       0.00000000       1.94747475       0.00000000       0.00000000      52.85600662
2
Properties=species:S:1:pos:R:3:forces:R:3 energy=14.950322679212595 pbc="F F F"
Cs       0.00000000       0.00000000       0.00000000       0.00000000       0.00000000     -44.16274261
Cs       0.00000000       0.00000000       2.00707071       0.00000000       0.00000000      44.16274261
2
Properties=species:S:1:pos:R:3:forces:R:3 energy=12.529497526379425 pbc="F F F"
Cs       0.00000000       0.00000000       0.00000000       0.00000000       0.00000000     -37.38997650
Cs       0.00000000       0.00000000       2.06666667       0.00000000       0.00000000      37.38997650
2
Properties=species:S:1:pos:R:3:forces:R:3 energy=10.461341271969635 pbc="F F F"
Cs       0.00000000       0.00000000       0.00000000       0.00000000       0.00000000     -32.23761368
Cs       0.00000000       0.00000000       2.12626263       0.00000000       0.00000000      32.23761368
2
Properties=species:S:1:pos:R:3:forces:R:3 energy=8.667324574704141 pbc="F F F"
Cs       0.00000000       0.00000000       0.00000000       0.00000000       0.00000000     -28.08086395
Cs       0.00000000       0.00000000       2.18585859       0.00000000       0.00000000      28.08086395
2
Properties=species:S:1:pos:R:3:forces:R:3 energy=7.105549680639152 pbc="F F F"
Cs       0.00000000       0.00000000       0.00000000       0.00000000       0.00000000     -24.37914467
Cs       0.00000000       0.00000000       2.24545455       0.00000000       0.00000000      24.37914467
2
Properties=species:S:1:pos:R:3:forces:R:3 energy=5.756670376350719 pbc="F F F"
Cs       0.00000000       0.00000000       0.00000000       0.00000000       0.00000000     -20.93050385
Cs       0.00000000       0.00000000       2.30505051       0.00000000       0.00000000      20.93050385
2
Properties=species:S:1:pos:R:3:forces:R:3 energy=4.604844249437278 pbc="F F F"
Cs       0.00000000       0.00000000       0.00000000       0.00000000       0.00000000     -17.78197670
Cs       0.00000000       0.00000000       2.36464646       0.00000000       0.00000000      17.78197670
2
Properties=species:S:1:pos:R:3:forces:R:3 energy=3.6297454261172595 pbc="F F F"
Cs       0.00000000       0.00000000       0.00000000       0.00000000       0.00000000     -15.00632381
Cs       0.00000000       0.00000000       2.42424242       0.00000000       0.00000000      15.00632381
2
Properties=species:S:1:pos:R:3:forces:R:3 energy=2.808650737756008 pbc="F F F"
Cs       0.00000000       0.00000000       0.00000000       0.00000000       0.00000000     -12.60979939
Cs       0.00000000       0.00000000       2.48383838       0.00000000       0.00000000      12.60979939
2
Properties=species:S:1:pos:R:3:forces:R:3 energy=2.1199304088663147 pbc="F F F"
Cs       0.00000000       0.00000000       0.00000000       0.00000000       0.00000000     -10.55709648
Cs       0.00000000       0.00000000       2.54343434       0.00000000       0.00000000      10.55709648
2
Properties=species:S:1:pos:R:3:forces:R:3 energy=1.544245865714182 pbc="F F F"
Cs       0.00000000       0.00000000       0.00000000       0.00000000       0.00000000      -8.81121254
Cs       0.00000000       0.00000000       2.60303030       0.00000000       0.00000000       8.81121254
2
Properties=species:S:1:pos:R:3:forces:R:3 energy=1.0641306020004506 pbc="F F F"
Cs       0.00000000       0.00000000       0.00000000       0.00000000       0.00000000      -7.34602928
Cs       0.00000000       0.00000000       2.66262626       0.00000000       0.00000000       7.34602928
2
Properties=species:S:1:pos:R:3:forces:R:3 energy=0.6635389120952053 pbc="F F F"
Cs       0.00000000       0.00000000       0.00000000       0.00000000       0.00000000      -6.13806295
Cs       0.00000000       0.00000000       2.72222222       0.00000000       0.00000000       6.13806295
2
Properties=species:S:1:pos:R:3:forces:R:3 energy=0.32804067743299054 pbc="F F F"
Cs       0.00000000       0.00000000       0.00000000       0.00000000       0.00000000      -5.15530729
Cs       0.00000000       0.00000000       2.78181818       0.00000000       0.00000000       5.15530729
2
Properties=species:S:1:pos:R:3:forces:R:3 energy=0.045410734864481994 pbc="F F F"
Cs       0.00000000       0.00000000       0.00000000       0.00000000       0.00000000      -4.35676765
Cs       0.00000000       0.00000000       2.84141414       0.00000000       0.00000000       4.35676765
2
Properties=species:S:1:pos:R:3:forces:R:3 energy=-0.19410179421240673 pbc="F F F"
Cs       0.00000000       0.00000000       0.00000000       0.00000000       0.00000000      -3.70218825
Cs       0.00000000       0.00000000       2.90101010       0.00000000       0.00000000       3.70218825
2
Properties=species:S:1:pos:R:3:forces:R:3 energy=-0.39810040631875016 pbc="F F F"
Cs       0.00000000       0.00000000       0.00000000       0.00000000       0.00000000      -3.16074181
Cs       0.00000000       0.00000000       2.96060606       0.00000000       0.00000000       3.16074181
2
Properties=species:S:1:pos:R:3:forces:R:3 energy=-0.5726668906025517 pbc="F F F"
Cs       0.00000000       0.00000000       0.00000000       0.00000000       0.00000000      -2.71161294
Cs       0.00000000       0.00000000       3.02020202       0.00000000       0.00000000       2.71161294
2
Properties=species:S:1:pos:R:3:forces:R:3 energy=-0.7228318972138231 pbc="F F F"
Cs       0.00000000       0.00000000       0.00000000       0.00000000       0.00000000      -2.33948898
Cs       0.00000000       0.00000000       3.07979798       0.00000000       0.00000000       2.33948898
2
Properties=species:S:1:pos:R:3:forces:R:3 energy=-0.8527785892447484 pbc="F F F"
Cs       0.00000000       0.00000000       0.00000000       0.00000000       0.00000000      -2.03093982
Cs       0.00000000       0.00000000       3.13939394       0.00000000       0.00000000       2.03093982
2
Properties=species:S:1:pos:R:3:forces:R:3 energy=-0.9659147282118953 pbc="F F F"
Cs       0.00000000       0.00000000       0.00000000       0.00000000       0.00000000      -1.77334547
Cs       0.00000000       0.00000000       3.19898990       0.00000000       0.00000000       1.77334547
2
Properties=species:S:1:pos:R:3:forces:R:3 energy=-1.0649295972839312 pbc="F F F"
Cs       0.00000000       0.00000000       0.00000000       0.00000000       0.00000000      -1.55527365
Cs       0.00000000       0.00000000       3.25858586       0.00000000       0.00000000       1.55527365
2
Properties=species:S:1:pos:R:3:forces:R:3 energy=-1.151887813448811 pbc="F F F"
Cs       0.00000000       0.00000000       0.00000000       0.00000000       0.00000000      -1.36735570
Cs       0.00000000       0.00000000       3.31818182       0.00000000       0.00000000       1.36735570
2
Properties=species:S:1:pos:R:3:forces:R:3 energy=-1.2283754343372324 pbc="F F F"
Cs       0.00000000       0.00000000       0.00000000       0.00000000       0.00000000      -1.20306480
Cs       0.00000000       0.00000000       3.37777778       0.00000000       0.00000000       1.20306480
2
Properties=species:S:1:pos:R:3:forces:R:3 energy=-1.2956776850181564 pbc="F F F"
Cs       0.00000000       0.00000000       0.00000000       0.00000000       0.00000000      -1.05870497
Cs       0.00000000       0.00000000       3.43737374       0.00000000       0.00000000       1.05870497
2
Properties=species:S:1:pos:R:3:forces:R:3 energy=-1.354922675092782 pbc="F F F"
Cs       0.00000000       0.00000000       0.00000000       0.00000000       0.00000000      -0.93241495
Cs       0.00000000       0.00000000       3.49696970       0.00000000       0.00000000       0.93241495
2
Properties=species:S:1:pos:R:3:forces:R:3 energy=-1.4071469582601122 pbc="F F F"
Cs       0.00000000       0.00000000       0.00000000       0.00000000       0.00000000      -0.82282466
Cs       0.00000000       0.00000000       3.55656566       0.00000000       0.00000000       0.82282466
2
Properties=species:S:1:pos:R:3:forces:R:3 energy=-1.453294598441524 pbc="F F F"
Cs       0.00000000       0.00000000       0.00000000       0.00000000       0.00000000      -0.72817254
Cs       0.00000000       0.00000000       3.61616162       0.00000000       0.00000000       0.72817254
2
Properties=species:S:1:pos:R:3:forces:R:3 energy=-1.4941921144471642 pbc="F F F"
Cs       0.00000000       0.00000000       0.00000000       0.00000000       0.00000000      -0.64625567
Cs       0.00000000       0.00000000       3.67575758       0.00000000       0.00000000       0.64625567
2
Properties=species:S:1:pos:R:3:forces:R:3 energy=-1.530532766524484 pbc="F F F"
Cs       0.00000000       0.00000000       0.00000000       0.00000000       0.00000000      -0.57492608
Cs       0.00000000       0.00000000       3.73535354       0.00000000       0.00000000       0.57492608
2
Properties=species:S:1:pos:R:3:forces:R:3 energy=-1.5628942009170028 pbc="F F F"
Cs       0.00000000       0.00000000       0.00000000       0.00000000       0.00000000      -0.51246524
Cs       0.00000000       0.00000000       3.79494949       0.00000000       0.00000000       0.51246524
2
Properties=species:S:1:pos:R:3:forces:R:3 energy=-1.5917639717396503 pbc="F F F"
Cs       0.00000000       0.00000000       0.00000000       0.00000000       0.00000000      -0.45751286
Cs       0.00000000       0.00000000       3.85454545       0.00000000       0.00000000       0.45751286
2
Properties=species:S:1:pos:R:3:forces:R:3 energy=-1.617547884045124 pbc="F F F"
Cs       0.00000000       0.00000000       0.00000000       0.00000000       0.00000000      -0.40868405
Cs       0.00000000       0.00000000       3.91414141       0.00000000       0.00000000       0.40868405
2
Properties=species:S:1:pos:R:3:forces:R:3 energy=-1.6405645292035016 pbc="F F F"
Cs       0.00000000       0.00000000       0.00000000       0.00000000       0.00000000      -0.36432874
Cs       0.00000000       0.00000000       3.97373737       0.00000000       0.00000000       0.36432874
2
Properties=species:S:1:pos:R:3:forces:R:3 energy=-1.661025748833956 pbc="F F F"
Cs       0.00000000       0.00000000       0.00000000       0.00000000       0.00000000      -0.32263812
Cs       0.00000000       0.00000000       4.03333333       0.00000000       0.00000000       0.32263812
2
Properties=species:S:1:pos:R:3:forces:R:3 energy=-1.6790407116792647 pbc="F F F"
Cs       0.00000000       0.00000000       0.00000000       0.00000000       0.00000000      -0.28198159
Cs       0.00000000       0.00000000       4.09292929       0.00000000       0.00000000       0.28198159
2
Properties=species:S:1:pos:R:3:forces:R:3 energy=-1.6946337957911992 pbc="F F F"
Cs       0.00000000       0.00000000       0.00000000       0.00000000       0.00000000      -0.24124268
Cs       0.00000000       0.00000000       4.15252525       0.00000000       0.00000000       0.24124268
2
Properties=species:S:1:pos:R:3:forces:R:3 energy=-1.7077827877722456 pbc="F F F"
Cs       0.00000000       0.00000000       0.00000000       0.00000000       0.00000000      -0.19990912
Cs       0.00000000       0.00000000       4.21212121       0.00000000       0.00000000       0.19990912
2
Properties=species:S:1:pos:R:3:forces:R:3 energy=-1.7184484839013239 pbc="F F F"
Cs       0.00000000       0.00000000       0.00000000       0.00000000       0.00000000      -0.15793334
Cs       0.00000000       0.00000000       4.27171717       0.00000000       0.00000000       0.15793334
2
Properties=species:S:1:pos:R:3:forces:R:3 energy=-1.7265971339504007 pbc="F F F"
Cs       0.00000000       0.00000000       0.00000000       0.00000000       0.00000000      -0.11544879
Cs       0.00000000       0.00000000       4.33131313       0.00000000       0.00000000       0.11544879
2
Properties=species:S:1:pos:R:3:forces:R:3 energy=-1.7322000562141733 pbc="F F F"
Cs       0.00000000       0.00000000       0.00000000       0.00000000       0.00000000      -0.07249779
Cs       0.00000000       0.00000000       4.39090909       0.00000000       0.00000000       0.07249779
2
Properties=species:S:1:pos:R:3:forces:R:3 energy=-1.735225143140242 pbc="F F F"
Cs       0.00000000       0.00000000       0.00000000       0.00000000       0.00000000      -0.02888845
Cs       0.00000000       0.00000000       4.45050505       0.00000000       0.00000000       0.02888845
2
Properties=species:S:1:pos:R:3:forces:R:3 energy=-1.7356217474679103 pbc="F F F"
Cs       0.00000000       0.00000000       0.00000000       0.00000000       0.00000000       0.01580288
Cs       0.00000000       0.00000000       4.51010101       0.00000000       0.00000000      -0.01580288
2
Properties=species:S:1:pos:R:3:forces:R:3 energy=-1.7333099018750544 pbc="F F F"
Cs       0.00000000       0.00000000       0.00000000       0.00000000       0.00000000       0.06208974
Cs       0.00000000       0.00000000       4.56969697       0.00000000       0.00000000      -0.06208974
2
Properties=species:S:1:pos:R:3:forces:R:3 energy=-1.7281816036898527 pbc="F F F"
Cs       0.00000000       0.00000000       0.00000000       0.00000000       0.00000000       0.11035151
Cs       0.00000000       0.00000000       4.62929293       0.00000000       0.00000000      -0.11035151
2
Properties=species:S:1:pos:R:3:forces:R:3 energy=-1.7201164910404174 pbc="F F F"
Cs       0.00000000       0.00000000       0.00000000       0.00000000       0.00000000       0.16064021
Cs       0.00000000       0.00000000       4.68888889       0.00000000       0.00000000      -0.16064021
2
Properties=species:S:1:pos:R:3:forces:R:3 energy=-1.7090008750395458 pbc="F F F"
Cs       0.00000000       0.00000000       0.00000000       0.00000000       0.00000000       0.21262744
Cs       0.00000000       0.00000000       4.74848485       0.00000000       0.00000000      -0.21262744
2
Properties=species:S:1:pos:R:3:forces:R:3 energy=-1.694749273324723 pbc="F F F"
Cs       0.00000000       0.00000000       0.00000000       0.00000000       0.00000000       0.26584390
Cs       0.00000000       0.00000000       4.80808081       0.00000000       0.00000000      -0.26584390
2
Properties=species:S:1:pos:R:3:forces:R:3 energy=-1.6772892919973683 pbc="F F F"
Cs       0.00000000       0.00000000       0.00000000       0.00000000       0.00000000       0.32035422
Cs       0.00000000       0.00000000       4.86767677       0.00000000       0.00000000      -0.32035422
2
Properties=species:S:1:pos:R:3:forces:R:3 energy=-1.6565087351044732 pbc="F F F"
Cs       0.00000000       0.00000000       0.00000000       0.00000000       0.00000000       0.37776136
Cs       0.00000000       0.00000000       4.92727273       0.00000000       0.00000000      -0.37776136
2
Properties=species:S:1:pos:R:3:forces:R:3 energy=-1.6321249450741635 pbc="F F F"
Cs       0.00000000       0.00000000       0.00000000       0.00000000       0.00000000       0.44220951
Cs       0.00000000       0.00000000       4.98686869       0.00000000       0.00000000      -0.44220951
2
Properties=species:S:1:pos:R:3:forces:R:3 energy=-1.6035280157823062 pbc="F F F"
Cs       0.00000000       0.00000000       0.00000000       0.00000000       0.00000000       0.52060485
Cs       0.00000000       0.00000000       5.04646465       0.00000000       0.00000000      -0.52060485
2
Properties=species:S:1:pos:R:3:forces:R:3 energy=-1.5696378373369677 pbc="F F F"
Cs       0.00000000       0.00000000       0.00000000       0.00000000       0.00000000       0.62088770
Cs       0.00000000       0.00000000       5.10606061       0.00000000       0.00000000      -0.62088770
2
Properties=species:S:1:pos:R:3:forces:R:3 energy=-1.5290040998429546 pbc="F F F"
Cs       0.00000000       0.00000000       0.00000000       0.00000000       0.00000000       0.74641305
Cs       0.00000000       0.00000000       5.16565657       0.00000000       0.00000000      -0.74641305
2
Properties=species:S:1:pos:R:3:forces:R:3 energy=-1.480391254172049 pbc="F F F"
Cs       0.00000000       0.00000000       0.00000000       0.00000000       0.00000000       0.88489932
Cs       0.00000000       0.00000000       5.22525253       0.00000000       0.00000000      -0.88489932
2
Properties=species:S:1:pos:R:3:forces:R:3 energy=-1.4240534521813457 pbc="F F F"
Cs       0.00000000       0.00000000       0.00000000       0.00000000       0.00000000       0.99674803
Cs       0.00000000       0.00000000       5.28484848       0.00000000       0.00000000      -0.99674803
2
Properties=species:S:1:pos:R:3:forces:R:3 energy=-1.3631089026293388 pbc="F F F"
Cs       0.00000000       0.00000000       0.00000000       0.00000000       0.00000000       1.03507912
Cs       0.00000000       0.00000000       5.34444444       0.00000000       0.00000000      -1.03507912
2
Properties=species:S:1:pos:R:3:forces:R:3 energy=-1.30130841663787 pbc="F F F"
Cs       0.00000000       0.00000000       0.00000000       0.00000000       0.00000000       1.04818356
Cs       0.00000000       0.00000000       5.40404040       0.00000000       0.00000000      -1.04818356
2
Properties=species:S:1:pos:R:3:forces:R:3 energy=-1.2350550231263715 pbc="F F F"
Cs       0.00000000       0.00000000       0.00000000       0.00000000       0.00000000       1.20869458
Cs       0.00000000       0.00000000       5.46363636       0.00000000       0.00000000      -1.20869458
2
Properties=species:S:1:pos:R:3:forces:R:3 energy=-1.1551924016483608 pbc="F F F"
Cs       0.00000000       0.00000000       0.00000000       0.00000000       0.00000000       1.46098995
Cs       0.00000000       0.00000000       5.52323232       0.00000000       0.00000000      -1.46098995
2
Properties=species:S:1:pos:R:3:forces:R:3 energy=-1.0654830794221881 pbc="F F F"
Cs       0.00000000       0.00000000       0.00000000       0.00000000       0.00000000       1.50113285
Cs       0.00000000       0.00000000       5.58282828       0.00000000       0.00000000      -1.50113285
2
Properties=species:S:1:pos:R:3:forces:R:3 energy=-0.9798187498076515 pbc="F F F"
Cs       0.00000000       0.00000000       0.00000000       0.00000000       0.00000000       1.37806976
Cs       0.00000000       0.00000000       5.64242424       0.00000000       0.00000000      -1.37806976
2
Properties=species:S:1:pos:R:3:forces:R:3 energy=-0.8947049337585496 pbc="F F F"
Cs       0.00000000       0.00000000       0.00000000       0.00000000       0.00000000       1.58108425
Cs       0.00000000       0.00000000       5.70202020       0.00000000       0.00000000      -1.58108425
2
Properties=species:S:1:pos:R:3:forces:R:3 energy=-0.7778964977018846 pbc="F F F"
Cs       0.00000000       0.00000000       0.00000000       0.00000000       0.00000000       2.41142726
Cs       0.00000000       0.00000000       5.76161616       0.00000000       0.00000000      -2.41142726
2
Properties=species:S:1:pos:R:3:forces:R:3 energy=-0.613919089968345 pbc="F F F"
Cs       0.00000000       0.00000000       0.00000000       0.00000000       0.00000000       2.89754224
Cs       0.00000000       0.00000000       5.82121212       0.00000000       0.00000000      -2.89754224
2
Properties=species:S:1:pos:R:3:forces:R:3 energy=-0.4619703456220712 pbc="F F F"
Cs       0.00000000       0.00000000       0.00000000       0.00000000       0.00000000       2.01067877
Cs       0.00000000       0.00000000       5.88080808       0.00000000       0.00000000      -2.01067877
2
Properties=species:S:1:pos:R:3:forces:R:3 energy=-0.3846735612957798 pbc="F F F"
Cs       0.00000000       0.00000000       0.00000000       0.00000000       0.00000000       0.59102374
Cs       0.00000000       0.00000000       5.94040404       0.00000000       0.00000000      -0.59102374
2
Properties=species:S:1:pos:R:3:forces:R:3 energy=-0.37427613180055985 pbc="F F F"
Cs       0.00000000       0.00000000       0.00000000       0.00000000       0.00000000      -0.02732364
Cs       0.00000000       0.00000000       6.00000000       0.00000000       0.00000000       0.02732364
