2
Properties=species:S:1:pos:R:3:forces:R:3 energy=34004.77593933425 pbc="F F F"
Cs       0.00000000       0.00000000       0.00000000       0.00000000       0.00000000 -167219.62500000
Cs       0.00000000       0.00000000       0.18000000       0.00000000       0.00000000  167219.62500000
2
Properties=species:S:1:pos:R:3:forces:R:3 energy=28058.76226745925 pbc="F F F"
Cs       0.00000000       0.00000000       0.00000000       0.00000000       0.00000000  -58035.28515625
Cs       0.00000000       0.00000000       0.23878788       0.00000000       0.00000000   58035.28515625
2
Properties=species:S:1:pos:R:3:forces:R:3 energy=25780.31890808425 pbc="F F F"
Cs       0.00000000       0.00000000       0.00000000       0.00000000       0.00000000  -25474.26171875
Cs       0.00000000       0.00000000       0.29757576       0.00000000       0.00000000   25474.26171875
2
Properties=species:S:1:pos:R:3:forces:R:3 energy=24646.62164245925 pbc="F F F"
Cs       0.00000000       0.00000000       0.00000000       0.00000000       0.00000000  -15177.45312500
Cs       0.00000000       0.00000000       0.35636364       0.00000000       0.00000000   15177.45312500
2
Properties=species:S:1:pos:R:3:forces:R:3 energy=23834.01226745925 pbc="F F F"
Cs       0.00000000       0.00000000       0.00000000       0.00000000       0.00000000  -13404.14257812
Cs       0.00000000       0.00000000       0.41515152       0.00000000       0.00000000   13404.14257812
2
Properties=species:S:1:pos:R:3:forces:R:3 energy=22989.95953308425 pbc="F F F"
Cs       0.00000000       0.00000000       0.00000000       0.00000000       0.00000000  -15833.97558594
Cs       0.00000000       0.00000000       0.47393939       0.00000000       0.00000000   15833.97558594
2
Properties=species:S:1:pos:R:3:forces:R:3 energy=21922.891173710042 pbc="F F F"
Cs       0.00000000       0.00000000       0.00000000       0.00000000       0.00000000  -20797.38476562
Cs       0.00000000       0.00000000       0.53272727       0.00000000       0.00000000   20797.38476562
2
Properties=species:S:1:pos:R:3:forces:R:3 energy=20513.295470585836 pbc="F F F"
Cs       0.00000000       0.00000000       0.00000000       0.00000000       0.00000000  -27347.53125000
Cs       0.00000000       0.00000000       0.59151515       0.00000000       0.00000000   27347.53125000
2
Properties=species:S:1:pos:R:3:forces:R:3 energy=18694.029845587418 pbc="F F F"
Cs       0.00000000       0.00000000       0.00000000       0.00000000       0.00000000  -34576.30859375
Cs       0.00000000       0.00000000       0.65030303       0.00000000       0.00000000   34576.30859375
2
Properties=species:S:1:pos:R:3:forces:R:3 energy=16456.436095590587 pbc="F F F"
Cs       0.00000000       0.00000000       0.00000000       0.00000000       0.00000000  -41365.03515625
Cs       0.00000000       0.00000000       0.70909091       0.00000000       0.00000000   41365.03515625
2
Properties=species:S:1:pos:R:3:forces:R:3 energy=13865.022033094545 pbc="F F F"
Cs       0.00000000       0.00000000       0.00000000       0.00000000       0.00000000  -46391.54296875
Cs       0.00000000       0.00000000       0.76787879       0.00000000       0.00000000   46391.54296875
2
Properties=species:S:1:pos:R:3:forces:R:3 energy=11062.297423726674 pbc="F F F"
Cs       0.00000000       0.00000000       0.00000000       0.00000000       0.00000000  -48352.57421875
Cs       0.00000000       0.00000000       0.82666667       0.00000000       0.00000000   48352.57421875
2
Properties=species:S:1:pos:R:3:forces:R:3 energy=8257.777892484593 pbc="F F F"
Cs       0.00000000       0.00000000       0.00000000       0.00000000       0.00000000  -46367.37109375
Cs       0.00000000       0.00000000       0.88545455       0.00000000       0.00000000   46367.37109375
2
Properties=species:S:1:pos:R:3:forces:R:3 energy=5689.253478434764 pbc="F F F"
Cs       0.00000000       0.00000000       0.00000000       0.00000000       0.00000000  -40410.33593750
Cs       0.00000000       0.00000000       0.94424242       0.00000000       0.00000000   40410.33593750
2
Properties=species:S:1:pos:R:3:forces:R:3 energy=3564.3660272803118 pbc="F F F"
Cs       0.00000000       0.00000000       0.00000000       0.00000000       0.00000000  -31532.04296875
Cs       0.00000000       0.00000000       1.00303030       0.00000000       0.00000000   31532.04296875
2
Properties=species:S:1:pos:R:3:forces:R:3 energy=2001.8386835532788 pbc="F F F"
Cs       0.00000000       0.00000000       0.00000000       0.00000000       0.00000000  -21637.14062500
Cs       0.00000000       0.00000000       1.06181818       0.00000000       0.00000000   21637.14062500
2
Properties=species:S:1:pos:R:3:forces:R:3 energy=999.4898676661962 pbc="F F F"
Cs       0.00000000       0.00000000       0.00000000       0.00000000       0.00000000  -12783.67187500
Cs       0.00000000       0.00000000       1.12060606       0.00000000       0.00000000   12783.67187500
2
Properties=species:S:1:pos:R:3:forces:R:3 energy=450.61749221751273 pbc="F F F"
Cs       0.00000000       0.00000000       0.00000000       0.00000000       0.00000000   -6348.04150391
Cs       0.00000000       0.00000000       1.17939394       0.00000000       0.00000000    6348.04150391
2
Properties=species:S:1:pos:R:3:forces:R:3 energy=200.3021846525943 pbc="F F F"
Cs       0.00000000       0.00000000       0.00000000       0.00000000       0.00000000   -2575.48583984
Cs       0.00000000       0.00000000       1.23818182       0.00000000       0.00000000    2575.48583984
2
Properties=species:S:1:pos:R:3:forces:R:3 energy=107.34551967847213 pbc="F F F"
Cs       0.00000000       0.00000000       0.00000000       0.00000000       0.00000000    -847.89916992
Cs       0.00000000       0.00000000       1.29696970       0.00000000       0.00000000     847.89916992
2
Properties=species:S:1:pos:R:3:forces:R:3 energy=84.18711064376707 pbc="F F F"
Cs       0.00000000       0.00000000       0.00000000       0.00000000       0.00000000    -111.98737335
Cs       0.00000000       0.00000000       1.35575758       0.00000000       0.00000000     111.98737335
2
Properties=species:S:1:pos:R:3:forces:R:3 energy=78.79926284870653 pbc="F F F"
Cs       0.00000000       0.00000000       0.00000000       0.00000000       0.00000000    -161.98922729
Cs       0.00000000       0.00000000       1.41454545       0.00000000       0.00000000     161.98922729
2
Properties=species:S:1:pos:R:3:forces:R:3 energy=67.8297805559203 pbc="F F F"
Cs       0.00000000       0.00000000       0.00000000       0.00000000       0.00000000    -183.86021423
Cs       0.00000000       0.00000000       1.47333333       0.00000000       0.00000000     183.86021423
2
Properties=species:S:1:pos:R:3:forces:R:3 energy=57.77437223811211 pbc="F F F"
Cs       0.00000000       0.00000000       0.00000000       0.00000000       0.00000000    -157.25769043
Cs       0.00000000       0.00000000       1.53212121       0.00000000       0.00000000     157.25769043
2
Properties=species:S:1:pos:R:3:forces:R:3 energy=49.29625735114606 pbc="F F F"
Cs       0.00000000       0.00000000       0.00000000       0.00000000       0.00000000    -132.52156067
Cs       0.00000000       0.00000000       1.59090909       0.00000000       0.00000000     132.52156067
2
Properties=species:S:1:pos:R:3:forces:R:3 energy=42.05189952598858 pbc="F F F"
Cs       0.00000000       0.00000000       0.00000000       0.00000000       0.00000000    -114.72201538
Cs       0.00000000       0.00000000       1.64969697       0.00000000       0.00000000     114.72201538
2
Properties=species:S:1:pos:R:3:forces:R:3 energy=35.752346893612106 pbc="F F F"
Cs       0.00000000       0.00000000       0.00000000       0.00000000       0.00000000     -99.89060974
Cs       0.00000000       0.00000000       1.70848485       0.00000000       0.00000000      99.89060974
2
Properties=species:S:1:pos:R:3:forces:R:3 energy=30.27679944520955 pbc="F F F"
Cs       0.00000000       0.00000000       0.00000000       0.00000000       0.00000000     -86.63863373
Cs       0.00000000       0.00000000       1.76727273       0.00000000       0.00000000      86.63863373
2
Properties=species:S:1:pos:R:3:forces:R:3 energy=25.53904884677853 pbc="F F F"
Cs       0.00000000       0.00000000       0.00000000       0.00000000       0.00000000     -74.72838593
Cs       0.00000000       0.00000000       1.82606061       0.00000000       0.00000000      74.72838593
2
Properties=species:S:1:pos:R:3:forces:R:3 energy=21.474119367713207 pbc="F F F"
Cs       0.00000000       0.00000000       0.00000000       0.00000000       0.00000000     -63.67719269
Cs       0.00000000       0.00000000       1.88484848       0.00000000       0.00000000      63.67719269
2
Properties=species:S:1:pos:R:3:forces:R:3 energy=18.03604010552073 pbc="F F F"
Cs       0.00000000       0.00000000       0.00000000       0.00000000       0.00000000     -53.47731400
Cs       0.00000000       0.00000000       1.94363636       0.00000000       0.00000000      53.47731400
2
Properties=species:S:1:pos:R:3:forces:R:3 energy=15.156938068605934 pbc="F F F"
Cs       0.00000000       0.00000000       0.00000000       0.00000000       0.00000000     -44.77151108
Cs       0.00000000       0.00000000       2.00242424       0.00000000       0.00000000      44.77151108
2
Properties=species:S:1:pos:R:3:forces:R:3 energy=12.73492747879858 pbc="F F F"
Cs       0.00000000       0.00000000       0.00000000       0.00000000       0.00000000     -37.93437195
Cs       0.00000000       0.00000000       2.06121212       0.00000000       0.00000000      37.93437195
2
Properties=species:S:1:pos:R:3:forces:R:3 energy=10.664739870376403 pbc="F F F"
Cs       0.00000000       0.00000000       0.00000000       0.00000000       0.00000000     -32.72068787
Cs       0.00000000       0.00000000       2.12000000       0.00000000       0.00000000      32.72068787
2
Properties=species:S:1:pos:R:3:forces:R:3 energy=8.867495905962056 pbc="F F F"
Cs       0.00000000       0.00000000       0.00000000       0.00000000       0.00000000     -28.54239464
Cs       0.00000000       0.00000000       2.17878788       0.00000000       0.00000000      28.54239464
2
Properties=species:S:1:pos:R:3:forces:R:3 energy=7.299499202642967 pbc="F F F"
Cs       0.00000000       0.00000000       0.00000000       0.00000000       0.00000000     -24.85320473
Cs       0.00000000       0.00000000       2.23757576       0.00000000       0.00000000      24.85320473
2
Properties=species:S:1:pos:R:3:forces:R:3 energy=5.9406038863291455 pbc="F F F"
Cs       0.00000000       0.00000000       0.00000000       0.00000000       0.00000000     -21.41680145
Cs       0.00000000       0.00000000       2.29636364       0.00000000       0.00000000      21.41680145
2
Properties=species:S:1:pos:R:3:forces:R:3 energy=4.775945059209432 pbc="F F F"
Cs       0.00000000       0.00000000       0.00000000       0.00000000       0.00000000     -18.25978661
Cs       0.00000000       0.00000000       2.35515152       0.00000000       0.00000000      18.25978661
2
Properties=species:S:1:pos:R:3:forces:R:3 energy=3.7866697974839476 pbc="F F F"
Cs       0.00000000       0.00000000       0.00000000       0.00000000       0.00000000     -15.45842838
Cs       0.00000000       0.00000000       2.41393939       0.00000000       0.00000000      15.45842838
2
Properties=species:S:1:pos:R:3:forces:R:3 energy=2.9510777490143374 pbc="F F F"
Cs       0.00000000       0.00000000       0.00000000       0.00000000       0.00000000     -13.02927685
Cs       0.00000000       0.00000000       2.47272727       0.00000000       0.00000000      13.02927685
2
Properties=species:S:1:pos:R:3:forces:R:3 energy=2.248043624107216 pbc="F F F"
Cs       0.00000000       0.00000000       0.00000000       0.00000000       0.00000000     -10.94207001
Cs       0.00000000       0.00000000       2.53151515       0.00000000       0.00000000      10.94207001
2
Properties=species:S:1:pos:R:3:forces:R:3 energy=1.6585926813239837 pbc="F F F"
Cs       0.00000000       0.00000000       0.00000000       0.00000000       0.00000000      -9.15973663
Cs       0.00000000       0.00000000       2.59030303       0.00000000       0.00000000       9.15973663
2
Properties=species:S:1:pos:R:3:forces:R:3 energy=1.165637492778653 pbc="F F F"
Cs       0.00000000       0.00000000       0.00000000       0.00000000       0.00000000      -7.65529728
Cs       0.00000000       0.00000000       2.64909091       0.00000000       0.00000000       7.65529728
2
Properties=species:S:1:pos:R:3:forces:R:3 energy=0.7534940314499394 pbc="F F F"
Cs       0.00000000       0.00000000       0.00000000       0.00000000       0.00000000      -6.40681982
Cs       0.00000000       0.00000000       2.70787879       0.00000000       0.00000000       6.40681982
2
Properties=species:S:1:pos:R:3:forces:R:3 energy=0.40788446626392144 pbc="F F F"
Cs       0.00000000       0.00000000       0.00000000       0.00000000       0.00000000      -5.38599205
Cs       0.00000000       0.00000000       2.76666667       0.00000000       0.00000000       5.38599205
2
Properties=species:S:1:pos:R:3:forces:R:3 energy=0.11651046778590199 pbc="F F F"
Cs       0.00000000       0.00000000       0.00000000       0.00000000       0.00000000      -4.55495644
Cs       0.00000000       0.00000000       2.82545455       0.00000000       0.00000000       4.55495644
2
Properties=species:S:1:pos:R:3:forces:R:3 energy=-0.13059918922460081 pbc="F F F"
Cs       0.00000000       0.00000000       0.00000000       0.00000000       0.00000000      -3.87380004
Cs       0.00000000       0.00000000       2.88424242       0.00000000       0.00000000       3.87380004
2
Properties=species:S:1:pos:R:3:forces:R:3 energy=-0.3412488587921267 pbc="F F F"
Cs       0.00000000       0.00000000       0.00000000       0.00000000       0.00000000      -3.31003737
Cs       0.00000000       0.00000000       2.94303030       0.00000000       0.00000000       3.31003737
2
Properties=species:S:1:pos:R:3:forces:R:3 energy=-0.5216380649312271 pbc="F F F"
Cs       0.00000000       0.00000000       0.00000000       0.00000000       0.00000000      -2.84128666
Cs       0.00000000       0.00000000       3.00181818       0.00000000       0.00000000       2.84128666
2
Properties=species:S:1:pos:R:3:forces:R:3 energy=-0.676865758525176 pbc="F F F"
Cs       0.00000000       0.00000000       0.00000000       0.00000000       0.00000000      -2.45175719
Cs       0.00000000       0.00000000       3.06060606       0.00000000       0.00000000       2.45175719
2
Properties=species:S:1:pos:R:3:forces:R:3 energy=-0.8111969406353898 pbc="F F F"
Cs       0.00000000       0.00000000       0.00000000       0.00000000       0.00000000      -2.12819576
Cs       0.00000000       0.00000000       3.11939394       0.00000000       0.00000000       2.12819576
2
Properties=species:S:1:pos:R:3:forces:R:3 energy=-0.9281413046405574 pbc="F F F"
Cs       0.00000000       0.00000000       0.00000000       0.00000000       0.00000000      -1.85824394
Cs       0.00000000       0.00000000       3.17818182       0.00000000       0.00000000       1.85824394
2
Properties=species:S:1:pos:R:3:forces:R:3 energy=-1.0305066849719378 pbc="F F F"
Cs       0.00000000       0.00000000       0.00000000       0.00000000       0.00000000      -1.63045013
Cs       0.00000000       0.00000000       3.23696970       0.00000000       0.00000000       1.63045013
2
Properties=species:S:1:pos:R:3:forces:R:3 energy=-1.1204741779727103 pbc="F F F"
Cs       0.00000000       0.00000000       0.00000000       0.00000000       0.00000000      -1.43500566
Cs       0.00000000       0.00000000       3.29575758       0.00000000       0.00000000       1.43500566
2
Properties=species:S:1:pos:R:3:forces:R:3 energy=-1.1997165072190312 pbc="F F F"
Cs       0.00000000       0.00000000       0.00000000       0.00000000       0.00000000      -1.26459241
Cs       0.00000000       0.00000000       3.35454545       0.00000000       0.00000000       1.26459241
2
Properties=species:S:1:pos:R:3:forces:R:3 energy=-1.2695594328980864 pbc="F F F"
Cs       0.00000000       0.00000000       0.00000000       0.00000000       0.00000000      -1.11468387
Cs       0.00000000       0.00000000       3.41333333       0.00000000       0.00000000       1.11468387
2
Properties=species:S:1:pos:R:3:forces:R:3 energy=-1.331132021453214 pbc="F F F"
Cs       0.00000000       0.00000000       0.00000000       0.00000000       0.00000000      -0.98296076
Cs       0.00000000       0.00000000       3.47212121       0.00000000       0.00000000       0.98296076
2
Properties=species:S:1:pos:R:3:forces:R:3 energy=-1.3854616538037654 pbc="F F F"
Cs       0.00000000       0.00000000       0.00000000       0.00000000       0.00000000      -0.86805743
Cs       0.00000000       0.00000000       3.53090909       0.00000000       0.00000000       0.86805743
2
Properties=species:S:1:pos:R:3:forces:R:3 energy=-1.4334956069782467 pbc="F F F"
Cs       0.00000000       0.00000000       0.00000000       0.00000000       0.00000000      -0.76849759
Cs       0.00000000       0.00000000       3.58969697       0.00000000       0.00000000       0.76849759
2
Properties=species:S:1:pos:R:3:forces:R:3 energy=-1.476080427739405 pbc="F F F"
Cs       0.00000000       0.00000000       0.00000000       0.00000000       0.00000000      -0.68230802
Cs       0.00000000       0.00000000       3.64848485       0.00000000       0.00000000       0.68230802
2
Properties=species:S:1:pos:R:3:forces:R:3 energy=-1.51393774893756 pbc="F F F"
Cs       0.00000000       0.00000000       0.00000000       0.00000000       0.00000000      -0.60733682
Cs       0.00000000       0.00000000       3.70727273       0.00000000       0.00000000       0.60733682
2
Properties=species:S:1:pos:R:3:forces:R:3 energy=-1.5476714341484217 pbc="F F F"
Cs       0.00000000       0.00000000       0.00000000       0.00000000       0.00000000      -0.54172522
Cs       0.00000000       0.00000000       3.76606061       0.00000000       0.00000000       0.54172522
2
Properties=species:S:1:pos:R:3:forces:R:3 energy=-1.5777869038331969 pbc="F F F"
Cs       0.00000000       0.00000000       0.00000000       0.00000000       0.00000000      -0.48403916
Cs       0.00000000       0.00000000       3.82484848       0.00000000       0.00000000       0.48403916
2
Properties=species:S:1:pos:R:3:forces:R:3 energy=-1.604713784311649 pbc="F F F"
Cs       0.00000000       0.00000000       0.00000000       0.00000000       0.00000000      -0.43300769
Cs       0.00000000       0.00000000       3.88363636       0.00000000       0.00000000       0.43300769
2
Properties=species:S:1:pos:R:3:forces:R:3 energy=-1.6288004486854 pbc="F F F"
Cs       0.00000000       0.00000000       0.00000000       0.00000000       0.00000000      -0.38718724
Cs       0.00000000       0.00000000       3.94242424       0.00000000       0.00000000       0.38718724
2
Properties=species:S:1:pos:R:3:forces:R:3 energy=-1.6503059074384188 pbc="F F F"
Cs       0.00000000       0.00000000       0.00000000       0.00000000       0.00000000      -0.34488544
Cs       0.00000000       0.00000000       4.00121212       0.00000000       0.00000000       0.34488544
2
Properties=species:S:1:pos:R:3:forces:R:3 energy=-1.6693857599558315 pbc="F F F"
Cs       0.00000000       0.00000000       0.00000000       0.00000000       0.00000000      -0.30439878
Cs       0.00000000       0.00000000       4.06000000       0.00000000       0.00000000       0.30439878
2
Properties=species:S:1:pos:R:3:forces:R:3 energy=-1.6861039055446971 pbc="F F F"
Cs       0.00000000       0.00000000       0.00000000       0.00000000       0.00000000      -0.26435858
Cs       0.00000000       0.00000000       4.11878788       0.00000000       0.00000000       0.26435858
2
Properties=species:S:1:pos:R:3:forces:R:3 energy=-1.7004609287081645 pbc="F F F"
Cs       0.00000000       0.00000000       0.00000000       0.00000000       0.00000000      -0.22395086
Cs       0.00000000       0.00000000       4.17757576       0.00000000       0.00000000       0.22395086
2
Properties=species:S:1:pos:R:3:forces:R:3 energy=-1.7124227363014526 pbc="F F F"
Cs       0.00000000       0.00000000       0.00000000       0.00000000       0.00000000      -0.18290497
Cs       0.00000000       0.00000000       4.23636364       0.00000000       0.00000000       0.18290497
2
Properties=species:S:1:pos:R:3:forces:R:3 energy=-1.7219544707828376 pbc="F F F"
Cs       0.00000000       0.00000000       0.00000000       0.00000000       0.00000000      -0.14128168
Cs       0.00000000       0.00000000       4.29515152       0.00000000       0.00000000       0.14128168
2
Properties=species:S:1:pos:R:3:forces:R:3 energy=-1.7290255502659457 pbc="F F F"
Cs       0.00000000       0.00000000       0.00000000       0.00000000       0.00000000      -0.09920157
Cs       0.00000000       0.00000000       4.35393939       0.00000000       0.00000000       0.09920157
2
Properties=species:S:1:pos:R:3:forces:R:3 energy=-1.733608816215747 pbc="F F F"
Cs       0.00000000       0.00000000       0.00000000       0.00000000       0.00000000      -0.05662709
Cs       0.00000000       0.00000000       4.41272727       0.00000000       0.00000000       0.05662709
2
Properties=species:S:1:pos:R:3:forces:R:3 energy=-1.7356684501287512 pbc="F F F"
Cs       0.00000000       0.00000000       0.00000000       0.00000000       0.00000000      -0.01328226
Cs       0.00000000       0.00000000       4.47151515       0.00000000       0.00000000       0.01328226
2
Properties=species:S:1:pos:R:3:forces:R:3 energy=-1.735146321861505 pbc="F F F"
Cs       0.00000000       0.00000000       0.00000000       0.00000000       0.00000000       0.03129120
Cs       0.00000000       0.00000000       4.53030303       0.00000000       0.00000000      -0.03129120
2
Properties=species:S:1:pos:R:3:forces:R:3 energy=-1.7319559847766433 pbc="F F F"
Cs       0.00000000       0.00000000       0.00000000       0.00000000       0.00000000       0.07756682
Cs       0.00000000       0.00000000       4.58909091       0.00000000       0.00000000      -0.07756682
2
Properties=species:S:1:pos:R:3:forces:R:3 energy=-1.7259875430689486 pbc="F F F"
Cs       0.00000000       0.00000000       0.00000000       0.00000000       0.00000000       0.12582499
Cs       0.00000000       0.00000000       4.64787879       0.00000000       0.00000000      -0.12582499
2
Properties=species:S:1:pos:R:3:forces:R:3 energy=-1.7171240978156526 pbc="F F F"
Cs       0.00000000       0.00000000       0.00000000       0.00000000       0.00000000       0.17599373
Cs       0.00000000       0.00000000       4.70666667       0.00000000       0.00000000      -0.17599373
2
Properties=species:S:1:pos:R:3:forces:R:3 energy=-1.7052648615793877 pbc="F F F"
Cs       0.00000000       0.00000000       0.00000000       0.00000000       0.00000000       0.22766931
Cs       0.00000000       0.00000000       4.76545455       0.00000000       0.00000000      -0.22766931
2
Properties=species:S:1:pos:R:3:forces:R:3 energy=-1.6903336414908257 pbc="F F F"
Cs       0.00000000       0.00000000       0.00000000       0.00000000       0.00000000       0.28047153
Cs       0.00000000       0.00000000       4.82424242       0.00000000       0.00000000      -0.28047153
2
Properties=species:S:1:pos:R:3:forces:R:3 energy=-1.6722619144176447 pbc="F F F"
Cs       0.00000000       0.00000000       0.00000000       0.00000000       0.00000000       0.33475038
Cs       0.00000000       0.00000000       4.88303030       0.00000000       0.00000000      -0.33475038
2
Properties=species:S:1:pos:R:3:forces:R:3 energy=-1.6509067519290233 pbc="F F F"
Cs       0.00000000       0.00000000       0.00000000       0.00000000       0.00000000       0.39261630
Cs       0.00000000       0.00000000       4.94181818       0.00000000       0.00000000      -0.39261630
2
Properties=species:S:1:pos:R:3:forces:R:3 energy=-1.6259369973354698 pbc="F F F"
Cs       0.00000000       0.00000000       0.00000000       0.00000000       0.00000000       0.45875311
Cs       0.00000000       0.00000000       5.00060606       0.00000000       0.00000000      -0.45875311
2
Properties=species:S:1:pos:R:3:forces:R:3 energy=-1.5966662678982535 pbc="F F F"
Cs       0.00000000       0.00000000       0.00000000       0.00000000       0.00000000       0.54028243
Cs       0.00000000       0.00000000       5.05939394       0.00000000       0.00000000      -0.54028243
2
Properties=species:S:1:pos:R:3:forces:R:3 energy=-1.5619649776470963 pbc="F F F"
Cs       0.00000000       0.00000000       0.00000000       0.00000000       0.00000000       0.64446396
Cs       0.00000000       0.00000000       5.11818182       0.00000000       0.00000000      -0.64446396
2
Properties=species:S:1:pos:R:3:forces:R:3 energy=-1.5204176859407181 pbc="F F F"
Cs       0.00000000       0.00000000       0.00000000       0.00000000       0.00000000       0.77245635
Cs       0.00000000       0.00000000       5.17696970       0.00000000       0.00000000      -0.77245635
2
Properties=species:S:1:pos:R:3:forces:R:3 energy=-1.4709791554028193 pbc="F F F"
Cs       0.00000000       0.00000000       0.00000000       0.00000000       0.00000000       0.90807796
Cs       0.00000000       0.00000000       5.23575758       0.00000000       0.00000000      -0.90807796
2
Properties=species:S:1:pos:R:3:forces:R:3 energy=-1.4143353734864692 pbc="F F F"
Cs       0.00000000       0.00000000       0.00000000       0.00000000       0.00000000       1.00862908
Cs       0.00000000       0.00000000       5.29454545       0.00000000       0.00000000      -1.00862908
2
Properties=species:S:1:pos:R:3:forces:R:3 energy=-1.3539131240116824 pbc="F F F"
Cs       0.00000000       0.00000000       0.00000000       0.00000000       0.00000000       1.03506911
Cs       0.00000000       0.00000000       5.35333333       0.00000000       0.00000000      -1.03506911
2
Properties=species:S:1:pos:R:3:forces:R:3 energy=-1.292805990582213 pbc="F F F"
Cs       0.00000000       0.00000000       0.00000000       0.00000000       0.00000000       1.05795932
Cs       0.00000000       0.00000000       5.41212121       0.00000000       0.00000000      -1.05795932
2
Properties=species:S:1:pos:R:3:forces:R:3 energy=-1.2261809373402304 pbc="F F F"
Cs       0.00000000       0.00000000       0.00000000       0.00000000       0.00000000       1.24039447
Cs       0.00000000       0.00000000       5.47090909       0.00000000       0.00000000      -1.24039447
2
Properties=species:S:1:pos:R:3:forces:R:3 energy=-1.145662680443097 pbc="F F F"
Cs       0.00000000       0.00000000       0.00000000       0.00000000       0.00000000       1.47949302
Cs       0.00000000       0.00000000       5.52969697       0.00000000       0.00000000      -1.47949302
2
Properties=species:S:1:pos:R:3:forces:R:3 energy=-1.0570132029362456 pbc="F F F"
Cs       0.00000000       0.00000000       0.00000000       0.00000000       0.00000000       1.49140859
Cs       0.00000000       0.00000000       5.58848485       0.00000000       0.00000000      -1.49140859
2
Properties=species:S:1:pos:R:3:forces:R:3 energy=-0.9731244311377925 pbc="F F F"
Cs       0.00000000       0.00000000       0.00000000       0.00000000       0.00000000       1.37384129
Cs       0.00000000       0.00000000       5.64727273       0.00000000       0.00000000      -1.37384129
2
Properties=species:S:1:pos:R:3:forces:R:3 energy=-0.8883551061961358 pbc="F F F"
Cs       0.00000000       0.00000000       0.00000000       0.00000000       0.00000000       1.61877966
Cs       0.00000000       0.00000000       5.70606061       0.00000000       0.00000000      -1.61877966
2
Properties=species:S:1:pos:R:3:forces:R:3 energy=-0.769655617270986 pbc="F F F"
Cs       0.00000000       0.00000000       0.00000000       0.00000000       0.00000000       2.46567750
Cs       0.00000000       0.00000000       5.76484848       0.00000000       0.00000000      -2.46567750
2
Properties=species:S:1:pos:R:3:forces:R:3 energy=-0.6068093765403683 pbc="F F F"
Cs       0.00000000       0.00000000       0.00000000       0.00000000       0.00000000       2.88971806
Cs       0.00000000       0.00000000       5.82363636       0.00000000       0.00000000      -2.88971806
2
Properties=species:S:1:pos:R:3:forces:R:3 energy=-0.45833037944228516 pbc="F F F"
Cs       0.00000000       0.00000000       0.00000000       0.00000000       0.00000000       1.97334015
Cs       0.00000000       0.00000000       5.88242424       0.00000000       0.00000000      -1.97334015
2
Properties=species:S:1:pos:R:3:forces:R:3 energy=-0.3843455763082893 pbc="F F F"
Cs       0.00000000       0.00000000       0.00000000       0.00000000       0.00000000       0.57278806
Cs       0.00000000       0.00000000       5.94121212       0.00000000       0.00000000      -0.57278806
2
Properties=species:S:1:pos:R:3:forces:R:3 energy=-0.37427613180055985 pbc="F F F"
Cs       0.00000000       0.00000000       0.00000000       0.00000000       0.00000000      -0.02732364
Cs       0.00000000       0.00000000       6.00000000       0.00000000       0.00000000       0.02732364
