2
Properties=species:S:1:pos:R:3:forces:R:3 energy=20042.20048249292 pbc="F F F"
Cu       0.00000000       0.00000000       0.00000000       0.00000000       0.00000000 -400928.00000000
Cu       0.00000000       0.00000000       0.10000000       0.00000000       0.00000000  400928.00000000
2
Properties=species:S:1:pos:R:3:forces:R:3 energy=7904.365521555421 pbc="F F F"
Cu       0.00000000       0.00000000       0.00000000       0.00000000       0.00000000  -94010.80468750
Cu       0.00000000       0.00000000       0.15959596       0.00000000       0.00000000   94010.80468750
2
Properties=species:S:1:pos:R:3:forces:R:3 energy=4581.830853586671 pbc="F F F"
Cu       0.00000000       0.00000000       0.00000000       0.00000000       0.00000000  -31205.19531250
Cu       0.00000000       0.00000000       0.21919192       0.00000000       0.00000000   31205.19531250
2
Properties=species:S:1:pos:R:3:forces:R:3 energy=3365.901654371089 pbc="F F F"
Cu       0.00000000       0.00000000       0.00000000       0.00000000       0.00000000  -12916.21875000
Cu       0.00000000       0.00000000       0.27878788       0.00000000       0.00000000   12916.21875000
2
Properties=species:S:1:pos:R:3:forces:R:3 energy=2817.077679761714 pbc="F F F"
Cu       0.00000000       0.00000000       0.00000000       0.00000000       0.00000000   -6559.96826172
Cu       0.00000000       0.00000000       0.33838384       0.00000000       0.00000000    6559.96826172
2
Properties=species:S:1:pos:R:3:forces:R:3 energy=2504.2900821117996 pbc="F F F"
Cu       0.00000000       0.00000000       0.00000000       0.00000000       0.00000000   -4359.04882812
Cu       0.00000000       0.00000000       0.39797980       0.00000000       0.00000000    4359.04882812
2
Properties=species:S:1:pos:R:3:forces:R:3 energy=2262.754925868135 pbc="F F F"
Cu       0.00000000       0.00000000       0.00000000       0.00000000       0.00000000   -3948.65087891
Cu       0.00000000       0.00000000       0.45757576       0.00000000       0.00000000    3948.65087891
2
Properties=species:S:1:pos:R:3:forces:R:3 energy=2016.2037784293725 pbc="F F F"
Cu       0.00000000       0.00000000       0.00000000       0.00000000       0.00000000   -4427.28173828
Cu       0.00000000       0.00000000       0.51717172       0.00000000       0.00000000    4427.28173828
2
Properties=species:S:1:pos:R:3:forces:R:3 energy=1727.386517722031 pbc="F F F"
Cu       0.00000000       0.00000000       0.00000000       0.00000000       0.00000000   -5292.29638672
Cu       0.00000000       0.00000000       0.57676768       0.00000000       0.00000000    5292.29638672
2
Properties=species:S:1:pos:R:3:forces:R:3 energy=1386.9590275510125 pbc="F F F"
Cu       0.00000000       0.00000000       0.00000000       0.00000000       0.00000000   -6075.89843750
Cu       0.00000000       0.00000000       0.63636364       0.00000000       0.00000000    6075.89843750
2
Properties=species:S:1:pos:R:3:forces:R:3 energy=1015.8110173921408 pbc="F F F"
Cu       0.00000000       0.00000000       0.00000000       0.00000000       0.00000000   -6215.93457031
Cu       0.00000000       0.00000000       0.69595960       0.00000000       0.00000000    6215.93457031
2
Properties=species:S:1:pos:R:3:forces:R:3 energy=673.7023139277472 pbc="F F F"
Cu       0.00000000       0.00000000       0.00000000       0.00000000       0.00000000   -5019.29931641
Cu       0.00000000       0.00000000       0.75555556       0.00000000       0.00000000    5019.29931641
2
Properties=species:S:1:pos:R:3:forces:R:3 energy=426.13779998933853 pbc="F F F"
Cu       0.00000000       0.00000000       0.00000000       0.00000000       0.00000000   -3350.21459961
Cu       0.00000000       0.00000000       0.81515152       0.00000000       0.00000000    3350.21459961
2
Properties=species:S:1:pos:R:3:forces:R:3 energy=264.17564210616354 pbc="F F F"
Cu       0.00000000       0.00000000       0.00000000       0.00000000       0.00000000   -2160.22851562
Cu       0.00000000       0.00000000       0.87474747       0.00000000       0.00000000    2160.22851562
2
Properties=species:S:1:pos:R:3:forces:R:3 energy=162.08254869025964 pbc="F F F"
Cu       0.00000000       0.00000000       0.00000000       0.00000000       0.00000000   -1324.68334961
Cu       0.00000000       0.00000000       0.93434343       0.00000000       0.00000000    1324.68334961
2
Properties=species:S:1:pos:R:3:forces:R:3 energy=101.03357623399232 pbc="F F F"
Cu       0.00000000       0.00000000       0.00000000       0.00000000       0.00000000    -746.82202148
Cu       0.00000000       0.00000000       0.99393939       0.00000000       0.00000000     746.82202148
2
Properties=species:S:1:pos:R:3:forces:R:3 energy=68.46034253436666 pbc="F F F"
Cu       0.00000000       0.00000000       0.00000000       0.00000000       0.00000000    -398.28674316
Cu       0.00000000       0.00000000       1.05353535       0.00000000       0.00000000     398.28674316
2
Properties=species:S:1:pos:R:3:forces:R:3 energy=49.08372624630983 pbc="F F F"
Cu       0.00000000       0.00000000       0.00000000       0.00000000       0.00000000    -270.07638550
Cu       0.00000000       0.00000000       1.11313131       0.00000000       0.00000000     270.07638550
2
Properties=species:S:1:pos:R:3:forces:R:3 energy=35.35822955473028 pbc="F F F"
Cu       0.00000000       0.00000000       0.00000000       0.00000000       0.00000000    -194.73950195
Cu       0.00000000       0.00000000       1.17272727       0.00000000       0.00000000     194.73950195
2
Properties=species:S:1:pos:R:3:forces:R:3 energy=25.47461791968294 pbc="F F F"
Cu       0.00000000       0.00000000       0.00000000       0.00000000       0.00000000    -139.70951843
Cu       0.00000000       0.00000000       1.23232323       0.00000000       0.00000000     139.70951843
2
Properties=species:S:1:pos:R:3:forces:R:3 energy=18.398700329953257 pbc="F F F"
Cu       0.00000000       0.00000000       0.00000000       0.00000000       0.00000000    -100.21069336
Cu       0.00000000       0.00000000       1.29191919       0.00000000       0.00000000     100.21069336
2
Properties=species:S:1:pos:R:3:forces:R:3 energy=13.268551768125112 pbc="F F F"
Cu       0.00000000       0.00000000       0.00000000       0.00000000       0.00000000     -73.79544067
Cu       0.00000000       0.00000000       1.35151515       0.00000000       0.00000000      73.79544067
2
Properties=species:S:1:pos:R:3:forces:R:3 energy=9.427963394249574 pbc="F F F"
Cu       0.00000000       0.00000000       0.00000000       0.00000000       0.00000000     -56.21911621
Cu       0.00000000       0.00000000       1.41111111       0.00000000       0.00000000      56.21911621
2
Properties=species:S:1:pos:R:3:forces:R:3 energy=6.466147793823753 pbc="F F F"
Cu       0.00000000       0.00000000       0.00000000       0.00000000       0.00000000     -43.80295944
Cu       0.00000000       0.00000000       1.47070707       0.00000000       0.00000000      43.80295944
2
Properties=species:S:1:pos:R:3:forces:R:3 energy=4.150291305933826 pbc="F F F"
Cu       0.00000000       0.00000000       0.00000000       0.00000000       0.00000000     -34.28493118
Cu       0.00000000       0.00000000       1.53030303       0.00000000       0.00000000      34.28493118
2
Properties=species:S:1:pos:R:3:forces:R:3 energy=2.343293452595802 pbc="F F F"
Cu       0.00000000       0.00000000       0.00000000       0.00000000       0.00000000     -26.61569595
Cu       0.00000000       0.00000000       1.58989899       0.00000000       0.00000000      26.61569595
2
Properties=species:S:1:pos:R:3:forces:R:3 energy=0.9502118921602074 pbc="F F F"
Cu       0.00000000       0.00000000       0.00000000       0.00000000       0.00000000     -20.35072327
Cu       0.00000000       0.00000000       1.64949495       0.00000000       0.00000000      20.35072327
2
Properties=species:S:1:pos:R:3:forces:R:3 energy=-0.10685988458406089 pbc="F F F"
Cu       0.00000000       0.00000000       0.00000000       0.00000000       0.00000000     -15.31826973
Cu       0.00000000       0.00000000       1.70909091       0.00000000       0.00000000      15.31826973
2
Properties=species:S:1:pos:R:3:forces:R:3 energy=-0.8969123537834472 pbc="F F F"
Cu       0.00000000       0.00000000       0.00000000       0.00000000       0.00000000     -11.35717583
Cu       0.00000000       0.00000000       1.76868687       0.00000000       0.00000000      11.35717583
2
Properties=species:S:1:pos:R:3:forces:R:3 energy=-1.4778636830513605 pbc="F F F"
Cu       0.00000000       0.00000000       0.00000000       0.00000000       0.00000000      -8.26943111
Cu       0.00000000       0.00000000       1.82828283       0.00000000       0.00000000       8.26943111
2
Properties=species:S:1:pos:R:3:forces:R:3 energy=-1.896526971088302 pbc="F F F"
Cu       0.00000000       0.00000000       0.00000000       0.00000000       0.00000000      -5.88534927
Cu       0.00000000       0.00000000       1.88787879       0.00000000       0.00000000       5.88534927
2
Properties=species:S:1:pos:R:3:forces:R:3 energy=-2.1904745787682143 pbc="F F F"
Cu       0.00000000       0.00000000       0.00000000       0.00000000       0.00000000      -4.06185198
Cu       0.00000000       0.00000000       1.94747475       0.00000000       0.00000000       4.06185198
2
Properties=species:S:1:pos:R:3:forces:R:3 energy=-2.389346747698629 pbc="F F F"
Cu       0.00000000       0.00000000       0.00000000       0.00000000       0.00000000      -2.67610812
Cu       0.00000000       0.00000000       2.00707071       0.00000000       0.00000000       2.67610812
2
Properties=species:S:1:pos:R:3:forces:R:3 energy=-2.5161421159758706 pbc="F F F"
Cu       0.00000000       0.00000000       0.00000000       0.00000000       0.00000000      -1.62833416
Cu       0.00000000       0.00000000       2.06666667       0.00000000       0.00000000       1.62833416
2
Properties=species:S:1:pos:R:3:forces:R:3 energy=-2.5885987593084843 pbc="F F F"
Cu       0.00000000       0.00000000       0.00000000       0.00000000       0.00000000      -0.84134638
Cu       0.00000000       0.00000000       2.12626263       0.00000000       0.00000000       0.84134638
2
Properties=species:S:1:pos:R:3:forces:R:3 energy=-2.6204195653194375 pbc="F F F"
Cu       0.00000000       0.00000000       0.00000000       0.00000000       0.00000000      -0.25589675
Cu       0.00000000       0.00000000       2.18585859       0.00000000       0.00000000       0.25589675
2
Properties=species:S:1:pos:R:3:forces:R:3 energy=-2.62217673629473 pbc="F F F"
Cu       0.00000000       0.00000000       0.00000000       0.00000000       0.00000000       0.17436564
Cu       0.00000000       0.00000000       2.24545455       0.00000000       0.00000000      -0.17436564
2
Properties=species:S:1:pos:R:3:forces:R:3 energy=-2.601986052124806 pbc="F F F"
Cu       0.00000000       0.00000000       0.00000000       0.00000000       0.00000000       0.48607373
Cu       0.00000000       0.00000000       2.30505051       0.00000000       0.00000000      -0.48607373
2
Properties=species:S:1:pos:R:3:forces:R:3 energy=-2.566023986924605 pbc="F F F"
Cu       0.00000000       0.00000000       0.00000000       0.00000000       0.00000000       0.70780689
Cu       0.00000000       0.00000000       2.36464646       0.00000000       0.00000000      -0.70780689
2
Properties=species:S:1:pos:R:3:forces:R:3 energy=-2.5189765769847905 pbc="F F F"
Cu       0.00000000       0.00000000       0.00000000       0.00000000       0.00000000       0.86106783
Cu       0.00000000       0.00000000       2.42424242       0.00000000       0.00000000      -0.86106783
2
Properties=species:S:1:pos:R:3:forces:R:3 energy=-2.464446582433186 pbc="F F F"
Cu       0.00000000       0.00000000       0.00000000       0.00000000       0.00000000       0.96104479
Cu       0.00000000       0.00000000       2.48383838       0.00000000       0.00000000      -0.96104479
2
Properties=species:S:1:pos:R:3:forces:R:3 energy=-2.4052886089218326 pbc="F F F"
Cu       0.00000000       0.00000000       0.00000000       0.00000000       0.00000000       1.01763582
Cu       0.00000000       0.00000000       2.54343434       0.00000000       0.00000000      -1.01763582
2
Properties=species:S:1:pos:R:3:forces:R:3 energy=-2.343864519650225 pbc="F F F"
Cu       0.00000000       0.00000000       0.00000000       0.00000000       0.00000000       1.03853619
Cu       0.00000000       0.00000000       2.60303030       0.00000000       0.00000000      -1.03853619
2
Properties=species:S:1:pos:R:3:forces:R:3 energy=-2.2819689720012266 pbc="F F F"
Cu       0.00000000       0.00000000       0.00000000       0.00000000       0.00000000       1.03630972
Cu       0.00000000       0.00000000       2.66262626       0.00000000       0.00000000      -1.03630972
2
Properties=species:S:1:pos:R:3:forces:R:3 energy=-2.220422629097069 pbc="F F F"
Cu       0.00000000       0.00000000       0.00000000       0.00000000       0.00000000       1.02973235
Cu       0.00000000       0.00000000       2.72222222       0.00000000       0.00000000      -1.02973235
2
Properties=species:S:1:pos:R:3:forces:R:3 energy=-2.159152128610875 pbc="F F F"
Cu       0.00000000       0.00000000       0.00000000       0.00000000       0.00000000       1.02657056
Cu       0.00000000       0.00000000       2.78181818       0.00000000       0.00000000      -1.02657056
2
Properties=species:S:1:pos:R:3:forces:R:3 energy=-2.098166957193604 pbc="F F F"
Cu       0.00000000       0.00000000       0.00000000       0.00000000       0.00000000       1.01838243
Cu       0.00000000       0.00000000       2.84141414       0.00000000       0.00000000      -1.01838243
2
Properties=species:S:1:pos:R:3:forces:R:3 energy=-2.0380152421922646 pbc="F F F"
Cu       0.00000000       0.00000000       0.00000000       0.00000000       0.00000000       0.99812210
Cu       0.00000000       0.00000000       2.90101010       0.00000000       0.00000000      -0.99812210
2
Properties=species:S:1:pos:R:3:forces:R:3 energy=-1.9794320418238722 pbc="F F F"
Cu       0.00000000       0.00000000       0.00000000       0.00000000       0.00000000       0.96620113
Cu       0.00000000       0.00000000       2.96060606       0.00000000       0.00000000      -0.96620113
2
Properties=species:S:1:pos:R:3:forces:R:3 energy=-1.9230169444576246 pbc="F F F"
Cu       0.00000000       0.00000000       0.00000000       0.00000000       0.00000000       0.92593831
Cu       0.00000000       0.00000000       3.02020202       0.00000000       0.00000000      -0.92593831
2
Properties=species:S:1:pos:R:3:forces:R:3 energy=-1.8691690854445207 pbc="F F F"
Cu       0.00000000       0.00000000       0.00000000       0.00000000       0.00000000       0.88051593
Cu       0.00000000       0.00000000       3.07979798       0.00000000       0.00000000      -0.88051593
2
Properties=species:S:1:pos:R:3:forces:R:3 energy=-1.8181212331053658 pbc="F F F"
Cu       0.00000000       0.00000000       0.00000000       0.00000000       0.00000000       0.83230299
Cu       0.00000000       0.00000000       3.13939394       0.00000000       0.00000000      -0.83230299
2
Properties=species:S:1:pos:R:3:forces:R:3 energy=-1.7699874148062218 pbc="F F F"
Cu       0.00000000       0.00000000       0.00000000       0.00000000       0.00000000       0.78297037
Cu       0.00000000       0.00000000       3.19898990       0.00000000       0.00000000      -0.78297037
2
Properties=species:S:1:pos:R:3:forces:R:3 energy=-1.7247961099729356 pbc="F F F"
Cu       0.00000000       0.00000000       0.00000000       0.00000000       0.00000000       0.73369664
Cu       0.00000000       0.00000000       3.25858586       0.00000000       0.00000000      -0.73369664
2
Properties=species:S:1:pos:R:3:forces:R:3 energy=-1.682518025105358 pbc="F F F"
Cu       0.00000000       0.00000000       0.00000000       0.00000000       0.00000000       0.68535197
Cu       0.00000000       0.00000000       3.31818182       0.00000000       0.00000000      -0.68535197
2
Properties=species:S:1:pos:R:3:forces:R:3 energy=-1.6430764710341474 pbc="F F F"
Cu       0.00000000       0.00000000       0.00000000       0.00000000       0.00000000       0.63859880
Cu       0.00000000       0.00000000       3.37777778       0.00000000       0.00000000      -0.63859880
2
Properties=species:S:1:pos:R:3:forces:R:3 energy=-1.606360516148876 pbc="F F F"
Cu       0.00000000       0.00000000       0.00000000       0.00000000       0.00000000       0.59393430
Cu       0.00000000       0.00000000       3.43737374       0.00000000       0.00000000      -0.59393430
2
Properties=species:S:1:pos:R:3:forces:R:3 energy=-1.5722357782708312 pbc="F F F"
Cu       0.00000000       0.00000000       0.00000000       0.00000000       0.00000000       0.55169106
Cu       0.00000000       0.00000000       3.49696970       0.00000000       0.00000000      -0.55169106
2
Properties=species:S:1:pos:R:3:forces:R:3 energy=-1.54055190533609 pbc="F F F"
Cu       0.00000000       0.00000000       0.00000000       0.00000000       0.00000000       0.51202720
Cu       0.00000000       0.00000000       3.55656566       0.00000000       0.00000000      -0.51202720
2
Properties=species:S:1:pos:R:3:forces:R:3 energy=-1.5111553282937489 pbc="F F F"
Cu       0.00000000       0.00000000       0.00000000       0.00000000       0.00000000       0.47493258
Cu       0.00000000       0.00000000       3.61616162       0.00000000       0.00000000      -0.47493258
2
Properties=species:S:1:pos:R:3:forces:R:3 energy=-1.4838960975531479 pbc="F F F"
Cu       0.00000000       0.00000000       0.00000000       0.00000000       0.00000000       0.44025624
Cu       0.00000000       0.00000000       3.67575758       0.00000000       0.00000000      -0.44025624
2
Properties=species:S:1:pos:R:3:forces:R:3 energy=-1.4586369959109362 pbc="F F F"
Cu       0.00000000       0.00000000       0.00000000       0.00000000       0.00000000       0.40775681
Cu       0.00000000       0.00000000       3.73535354       0.00000000       0.00000000      -0.40775681
2
Properties=species:S:1:pos:R:3:forces:R:3 energy=-1.4352569250964635 pbc="F F F"
Cu       0.00000000       0.00000000       0.00000000       0.00000000       0.00000000       0.37715971
Cu       0.00000000       0.00000000       3.79494949       0.00000000       0.00000000      -0.37715971
2
Properties=species:S:1:pos:R:3:forces:R:3 energy=-1.4136500217895513 pbc="F F F"
Cu       0.00000000       0.00000000       0.00000000       0.00000000       0.00000000       0.34820452
Cu       0.00000000       0.00000000       3.85454545       0.00000000       0.00000000      -0.34820452
2
Properties=species:S:1:pos:R:3:forces:R:3 energy=-1.3937253538456 pbc="F F F"
Cu       0.00000000       0.00000000       0.00000000       0.00000000       0.00000000       0.32067814
Cu       0.00000000       0.00000000       3.91414141       0.00000000       0.00000000      -0.32067814
2
Properties=species:S:1:pos:R:3:forces:R:3 energy=-1.3754022331194313 pbc="F F F"
Cu       0.00000000       0.00000000       0.00000000       0.00000000       0.00000000       0.29443285
Cu       0.00000000       0.00000000       3.97373737       0.00000000       0.00000000      -0.29443285
2
Properties=species:S:1:pos:R:3:forces:R:3 energy=-1.3586074578125176 pbc="F F F"
Cu       0.00000000       0.00000000       0.00000000       0.00000000       0.00000000       0.26938954
Cu       0.00000000       0.00000000       4.03333333       0.00000000       0.00000000      -0.26938954
2
Properties=species:S:1:pos:R:3:forces:R:3 energy=-1.3432698086707773 pbc="F F F"
Cu       0.00000000       0.00000000       0.00000000       0.00000000       0.00000000       0.24552785
Cu       0.00000000       0.00000000       4.09292929       0.00000000       0.00000000      -0.24552785
2
Properties=species:S:1:pos:R:3:forces:R:3 energy=-1.3293183452084782 pbc="F F F"
Cu       0.00000000       0.00000000       0.00000000       0.00000000       0.00000000       0.22288187
Cu       0.00000000       0.00000000       4.15252525       0.00000000       0.00000000      -0.22288187
2
Properties=species:S:1:pos:R:3:forces:R:3 energy=-1.3166788029190213 pbc="F F F"
Cu       0.00000000       0.00000000       0.00000000       0.00000000       0.00000000       0.20152132
Cu       0.00000000       0.00000000       4.21212121       0.00000000       0.00000000      -0.20152132
2
Properties=species:S:1:pos:R:3:forces:R:3 energy=-1.3052713176270205 pbc="F F F"
Cu       0.00000000       0.00000000       0.00000000       0.00000000       0.00000000       0.18154021
Cu       0.00000000       0.00000000       4.27171717       0.00000000       0.00000000      -0.18154021
2
Properties=species:S:1:pos:R:3:forces:R:3 energy=-1.2950112271071568 pbc="F F F"
Cu       0.00000000       0.00000000       0.00000000       0.00000000       0.00000000       0.16303977
Cu       0.00000000       0.00000000       4.33131313       0.00000000       0.00000000      -0.16303977
2
Properties=species:S:1:pos:R:3:forces:R:3 energy=-1.2858072243401244 pbc="F F F"
Cu       0.00000000       0.00000000       0.00000000       0.00000000       0.00000000       0.14610523
Cu       0.00000000       0.00000000       4.39090909       0.00000000       0.00000000      -0.14610523
2
Properties=species:S:1:pos:R:3:forces:R:3 energy=-1.2775641920250511 pbc="F F F"
Cu       0.00000000       0.00000000       0.00000000       0.00000000       0.00000000       0.13079076
Cu       0.00000000       0.00000000       4.45050505       0.00000000       0.00000000      -0.13079076
2
Properties=species:S:1:pos:R:3:forces:R:3 energy=-1.2701858572780491 pbc="F F F"
Cu       0.00000000       0.00000000       0.00000000       0.00000000       0.00000000       0.11709730
Cu       0.00000000       0.00000000       4.51010101       0.00000000       0.00000000      -0.11709730
2
Properties=species:S:1:pos:R:3:forces:R:3 energy=-1.263576230479203 pbc="F F F"
Cu       0.00000000       0.00000000       0.00000000       0.00000000       0.00000000       0.10495903
Cu       0.00000000       0.00000000       4.56969697       0.00000000       0.00000000      -0.10495903
2
Properties=species:S:1:pos:R:3:forces:R:3 energy=-1.2576471439682126 pbc="F F F"
Cu       0.00000000       0.00000000       0.00000000       0.00000000       0.00000000       0.09424110
Cu       0.00000000       0.00000000       4.62929293       0.00000000       0.00000000      -0.09424110
2
Properties=species:S:1:pos:R:3:forces:R:3 energy=-1.2523193316796 pbc="F F F"
Cu       0.00000000       0.00000000       0.00000000       0.00000000       0.00000000       0.08474606
Cu       0.00000000       0.00000000       4.68888889       0.00000000       0.00000000      -0.08474606
2
Properties=species:S:1:pos:R:3:forces:R:3 energy=-1.2475264390769982 pbc="F F F"
Cu       0.00000000       0.00000000       0.00000000       0.00000000       0.00000000       0.07623757
Cu       0.00000000       0.00000000       4.74848485       0.00000000       0.00000000      -0.07623757
2
Properties=species:S:1:pos:R:3:forces:R:3 energy=-1.2432175047894347 pbc="F F F"
Cu       0.00000000       0.00000000       0.00000000       0.00000000       0.00000000       0.06848334
Cu       0.00000000       0.00000000       4.80808081       0.00000000       0.00000000      -0.06848334
2
Properties=species:S:1:pos:R:3:forces:R:3 energy=-1.2393525110218342 pbc="F F F"
Cu       0.00000000       0.00000000       0.00000000       0.00000000       0.00000000       0.06130286
Cu       0.00000000       0.00000000       4.86767677       0.00000000       0.00000000      -0.06130286
2
Properties=species:S:1:pos:R:3:forces:R:3 energy=-1.235900536810966 pbc="F F F"
Cu       0.00000000       0.00000000       0.00000000       0.00000000       0.00000000       0.05462454
Cu       0.00000000       0.00000000       4.92727273       0.00000000       0.00000000      -0.05462454
2
Properties=species:S:1:pos:R:3:forces:R:3 energy=-1.2328304834595254 pbc="F F F"
Cu       0.00000000       0.00000000       0.00000000       0.00000000       0.00000000       0.04851779
Cu       0.00000000       0.00000000       4.98686869       0.00000000       0.00000000      -0.04851779
2
Properties=species:S:1:pos:R:3:forces:R:3 energy=-1.2301023734259477 pbc="F F F"
Cu       0.00000000       0.00000000       0.00000000       0.00000000       0.00000000       0.04319781
Cu       0.00000000       0.00000000       5.04646465       0.00000000       0.00000000      -0.04319781
2
Properties=species:S:1:pos:R:3:forces:R:3 energy=-1.227660410843038 pbc="F F F"
Cu       0.00000000       0.00000000       0.00000000       0.00000000       0.00000000       0.03894956
Cu       0.00000000       0.00000000       5.10606061       0.00000000       0.00000000      -0.03894956
2
Properties=species:S:1:pos:R:3:forces:R:3 energy=-1.2254338187348608 pbc="F F F"
Cu       0.00000000       0.00000000       0.00000000       0.00000000       0.00000000       0.03598701
Cu       0.00000000       0.00000000       5.16565657       0.00000000       0.00000000      -0.03598701
2
Properties=species:S:1:pos:R:3:forces:R:3 energy=-1.2233462850610133 pbc="F F F"
Cu       0.00000000       0.00000000       0.00000000       0.00000000       0.00000000       0.03424775
Cu       0.00000000       0.00000000       5.22525253       0.00000000       0.00000000      -0.03424775
2
Properties=species:S:1:pos:R:3:forces:R:3 energy=-1.2213372088966548 pbc="F F F"
Cu       0.00000000       0.00000000       0.00000000       0.00000000       0.00000000       0.03323271
Cu       0.00000000       0.00000000       5.28484848       0.00000000       0.00000000      -0.03323271
2
Properties=species:S:1:pos:R:3:forces:R:3 energy=-1.219387536754158 pbc="F F F"
Cu       0.00000000       0.00000000       0.00000000       0.00000000       0.00000000       0.03211065
Cu       0.00000000       0.00000000       5.34444444       0.00000000       0.00000000      -0.03211065
2
Properties=species:S:1:pos:R:3:forces:R:3 energy=-1.2175229986569485 pbc="F F F"
Cu       0.00000000       0.00000000       0.00000000       0.00000000       0.00000000       0.03036962
Cu       0.00000000       0.00000000       5.40404040       0.00000000       0.00000000      -0.03036962
2
Properties=species:S:1:pos:R:3:forces:R:3 energy=-1.2157670695713765 pbc="F F F"
Cu       0.00000000       0.00000000       0.00000000       0.00000000       0.00000000       0.02865587
Cu       0.00000000       0.00000000       5.46363636       0.00000000       0.00000000      -0.02865587
2
Properties=species:S:1:pos:R:3:forces:R:3 energy=-1.214094868673792 pbc="F F F"
Cu       0.00000000       0.00000000       0.00000000       0.00000000       0.00000000       0.02749020
Cu       0.00000000       0.00000000       5.52323232       0.00000000       0.00000000      -0.02749020
2
Properties=species:S:1:pos:R:3:forces:R:3 energy=-1.2125112707375563 pbc="F F F"
Cu       0.00000000       0.00000000       0.00000000       0.00000000       0.00000000       0.02535520
Cu       0.00000000       0.00000000       5.58282828       0.00000000       0.00000000      -0.02535520
2
Properties=species:S:1:pos:R:3:forces:R:3 energy=-1.2111055174509002 pbc="F F F"
Cu       0.00000000       0.00000000       0.00000000       0.00000000       0.00000000       0.02164404
Cu       0.00000000       0.00000000       5.64242424       0.00000000       0.00000000      -0.02164404
2
Properties=species:S:1:pos:R:3:forces:R:3 energy=-1.209931690097281 pbc="F F F"
Cu       0.00000000       0.00000000       0.00000000       0.00000000       0.00000000       0.01795450
Cu       0.00000000       0.00000000       5.70202020       0.00000000       0.00000000      -0.01795450
2
Properties=species:S:1:pos:R:3:forces:R:3 energy=-1.2089171679083857 pbc="F F F"
Cu       0.00000000       0.00000000       0.00000000       0.00000000       0.00000000       0.01652473
Cu       0.00000000       0.00000000       5.76161616       0.00000000       0.00000000      -0.01652473
2
Properties=species:S:1:pos:R:3:forces:R:3 energy=-1.2079516766114693 pbc="F F F"
Cu       0.00000000       0.00000000       0.00000000       0.00000000       0.00000000       0.01554837
Cu       0.00000000       0.00000000       5.82121212       0.00000000       0.00000000      -0.01554837
2
Properties=species:S:1:pos:R:3:forces:R:3 energy=-1.2071227592463947 pbc="F F F"
Cu       0.00000000       0.00000000       0.00000000       0.00000000       0.00000000       0.01192046
Cu       0.00000000       0.00000000       5.88080808       0.00000000       0.00000000      -0.01192046
2
Properties=species:S:1:pos:R:3:forces:R:3 energy=-1.2065435131985436 pbc="F F F"
Cu       0.00000000       0.00000000       0.00000000       0.00000000       0.00000000       0.00761570
Cu       0.00000000       0.00000000       5.94040404       0.00000000       0.00000000      -0.00761570
2
Properties=species:S:1:pos:R:3:forces:R:3 energy=-1.2061662755827145 pbc="F F F"
Cu       0.00000000       0.00000000       0.00000000       0.00000000       0.00000000       0.00560382
Cu       0.00000000       0.00000000       6.00000000       0.00000000       0.00000000      -0.00560382
