2
Properties=species:S:1:pos:R:3:forces:R:3 energy=41994.234528755274 pbc="F F F"
Dy       0.00000000       0.00000000       0.00000000       0.00000000       0.00000000 -221336.46875000
Dy       0.00000000       0.00000000       0.18000000       0.00000000       0.00000000  221336.46875000
2
Properties=species:S:1:pos:R:3:forces:R:3 energy=34068.945466255274 pbc="F F F"
Dy       0.00000000       0.00000000       0.00000000       0.00000000       0.00000000  -79428.55468750
Dy       0.00000000       0.00000000       0.23878788       0.00000000       0.00000000   79428.55468750
2
Properties=species:S:1:pos:R:3:forces:R:3 energy=30741.75406000527 pbc="F F F"
Dy       0.00000000       0.00000000       0.00000000       0.00000000       0.00000000  -42167.94921875
Dy       0.00000000       0.00000000       0.29757576       0.00000000       0.00000000   42167.94921875
2
Properties=species:S:1:pos:R:3:forces:R:3 energy=28506.61929439294 pbc="F F F"
Dy       0.00000000       0.00000000       0.00000000       0.00000000       0.00000000  -37054.14453125
Dy       0.00000000       0.00000000       0.35636364       0.00000000       0.00000000   37054.14453125
2
Properties=species:S:1:pos:R:3:forces:R:3 energy=26125.82437251794 pbc="F F F"
Dy       0.00000000       0.00000000       0.00000000       0.00000000       0.00000000  -45451.88671875
Dy       0.00000000       0.00000000       0.41515152       0.00000000       0.00000000   45451.88671875
2
Properties=species:S:1:pos:R:3:forces:R:3 energy=23046.728669405613 pbc="F F F"
Dy       0.00000000       0.00000000       0.00000000       0.00000000       0.00000000  -59796.48046875
Dy       0.00000000       0.00000000       0.47393939       0.00000000       0.00000000   59796.48046875
2
Properties=species:S:1:pos:R:3:forces:R:3 energy=19095.185700668284 pbc="F F F"
Dy       0.00000000       0.00000000       0.00000000       0.00000000       0.00000000  -74097.75000000
Dy       0.00000000       0.00000000       0.53272727       0.00000000       0.00000000   74097.75000000
2
Properties=species:S:1:pos:R:3:forces:R:3 energy=14461.833161643799 pbc="F F F"
Dy       0.00000000       0.00000000       0.00000000       0.00000000       0.00000000  -81931.35156250
Dy       0.00000000       0.00000000       0.59151515       0.00000000       0.00000000   81931.35156250
2
Properties=species:S:1:pos:R:3:forces:R:3 energy=9697.479646069483 pbc="F F F"
Dy       0.00000000       0.00000000       0.00000000       0.00000000       0.00000000  -77907.84375000
Dy       0.00000000       0.00000000       0.65030303       0.00000000       0.00000000   77907.84375000
2
Properties=species:S:1:pos:R:3:forces:R:3 energy=5555.461091445341 pbc="F F F"
Dy       0.00000000       0.00000000       0.00000000       0.00000000       0.00000000  -61189.51171875
Dy       0.00000000       0.00000000       0.70909091       0.00000000       0.00000000   61189.51171875
2
Properties=species:S:1:pos:R:3:forces:R:3 energy=2636.7118239812567 pbc="F F F"
Dy       0.00000000       0.00000000       0.00000000       0.00000000       0.00000000  -37809.39843750
Dy       0.00000000       0.00000000       0.76787879       0.00000000       0.00000000   37809.39843750
2
Properties=species:S:1:pos:R:3:forces:R:3 energy=1045.4928300053584 pbc="F F F"
Dy       0.00000000       0.00000000       0.00000000       0.00000000       0.00000000  -17735.10546875
Dy       0.00000000       0.00000000       0.82666667       0.00000000       0.00000000   17735.10546875
2
Properties=species:S:1:pos:R:3:forces:R:3 energy=382.08221625778367 pbc="F F F"
Dy       0.00000000       0.00000000       0.00000000       0.00000000       0.00000000   -6519.05517578
Dy       0.00000000       0.00000000       0.88545455       0.00000000       0.00000000    6519.05517578
2
Properties=species:S:1:pos:R:3:forces:R:3 energy=164.43663248079184 pbc="F F F"
Dy       0.00000000       0.00000000       0.00000000       0.00000000       0.00000000   -1834.88427734
Dy       0.00000000       0.00000000       0.94424242       0.00000000       0.00000000    1834.88427734
2
Properties=species:S:1:pos:R:3:forces:R:3 energy=125.73998531825785 pbc="F F F"
Dy       0.00000000       0.00000000       0.00000000       0.00000000       0.00000000    -229.89616394
Dy       0.00000000       0.00000000       1.00303030       0.00000000       0.00000000     229.89616394
2
Properties=species:S:1:pos:R:3:forces:R:3 energy=109.61148405973243 pbc="F F F"
Dy       0.00000000       0.00000000       0.00000000       0.00000000       0.00000000    -296.62802124
Dy       0.00000000       0.00000000       1.06181818       0.00000000       0.00000000     296.62802124
2
Properties=species:S:1:pos:R:3:forces:R:3 energy=91.66928518900623 pbc="F F F"
Dy       0.00000000       0.00000000       0.00000000       0.00000000       0.00000000    -321.30770874
Dy       0.00000000       0.00000000       1.12060606       0.00000000       0.00000000     321.30770874
2
Properties=species:S:1:pos:R:3:forces:R:3 energy=75.01112132605229 pbc="F F F"
Dy       0.00000000       0.00000000       0.00000000       0.00000000       0.00000000    -243.15536499
Dy       0.00000000       0.00000000       1.17939394       0.00000000       0.00000000     243.15536499
2
Properties=species:S:1:pos:R:3:forces:R:3 energy=62.568690354343445 pbc="F F F"
Dy       0.00000000       0.00000000       0.00000000       0.00000000       0.00000000    -185.49215698
Dy       0.00000000       0.00000000       1.23818182       0.00000000       0.00000000     185.49215698
2
Properties=species:S:1:pos:R:3:forces:R:3 energy=52.66095827444396 pbc="F F F"
Dy       0.00000000       0.00000000       0.00000000       0.00000000       0.00000000    -154.52069092
Dy       0.00000000       0.00000000       1.29696970       0.00000000       0.00000000     154.52069092
2
Properties=species:S:1:pos:R:3:forces:R:3 energy=44.22322025469075 pbc="F F F"
Dy       0.00000000       0.00000000       0.00000000       0.00000000       0.00000000    -133.14277649
Dy       0.00000000       0.00000000       1.35575758       0.00000000       0.00000000     133.14277649
2
Properties=species:S:1:pos:R:3:forces:R:3 energy=36.95434421964826 pbc="F F F"
Dy       0.00000000       0.00000000       0.00000000       0.00000000       0.00000000    -114.75921631
Dy       0.00000000       0.00000000       1.41454545       0.00000000       0.00000000     114.75921631
2
Properties=species:S:1:pos:R:3:forces:R:3 energy=30.634268014827423 pbc="F F F"
Dy       0.00000000       0.00000000       0.00000000       0.00000000       0.00000000    -101.05406189
Dy       0.00000000       0.00000000       1.47333333       0.00000000       0.00000000     101.05406189
2
Properties=species:S:1:pos:R:3:forces:R:3 energy=25.021008378587414 pbc="F F F"
Dy       0.00000000       0.00000000       0.00000000       0.00000000       0.00000000     -89.92430878
Dy       0.00000000       0.00000000       1.53212121       0.00000000       0.00000000      89.92430878
2
Properties=species:S:1:pos:R:3:forces:R:3 energy=20.08796173891065 pbc="F F F"
Dy       0.00000000       0.00000000       0.00000000       0.00000000       0.00000000     -77.65898132
Dy       0.00000000       0.00000000       1.59090909       0.00000000       0.00000000      77.65898132
2
Properties=species:S:1:pos:R:3:forces:R:3 energy=15.89439342258521 pbc="F F F"
Dy       0.00000000       0.00000000       0.00000000       0.00000000       0.00000000     -65.19545746
Dy       0.00000000       0.00000000       1.64969697       0.00000000       0.00000000      65.19545746
2
Properties=species:S:1:pos:R:3:forces:R:3 energy=12.387191602322414 pbc="F F F"
Dy       0.00000000       0.00000000       0.00000000       0.00000000       0.00000000     -54.45019150
Dy       0.00000000       0.00000000       1.70848485       0.00000000       0.00000000      54.45019150
2
Properties=species:S:1:pos:R:3:forces:R:3 energy=9.458381474759365 pbc="F F F"
Dy       0.00000000       0.00000000       0.00000000       0.00000000       0.00000000     -45.43401337
Dy       0.00000000       0.00000000       1.76727273       0.00000000       0.00000000      45.43401337
2
Properties=species:S:1:pos:R:3:forces:R:3 energy=7.020344503515876 pbc="F F F"
Dy       0.00000000       0.00000000       0.00000000       0.00000000       0.00000000     -37.69456482
Dy       0.00000000       0.00000000       1.82606061       0.00000000       0.00000000      37.69456482
2
Properties=species:S:1:pos:R:3:forces:R:3 energy=5.007502958161516 pbc="F F F"
Dy       0.00000000       0.00000000       0.00000000       0.00000000       0.00000000     -30.92150688
Dy       0.00000000       0.00000000       1.88484848       0.00000000       0.00000000      30.92150688
2
Properties=species:S:1:pos:R:3:forces:R:3 energy=3.370535052525181 pbc="F F F"
Dy       0.00000000       0.00000000       0.00000000       0.00000000       0.00000000     -24.87855721
Dy       0.00000000       0.00000000       1.94363636       0.00000000       0.00000000      24.87855721
2
Properties=species:S:1:pos:R:3:forces:R:3 energy=2.069843153274288 pbc="F F F"
Dy       0.00000000       0.00000000       0.00000000       0.00000000       0.00000000     -19.48088074
Dy       0.00000000       0.00000000       2.00242424       0.00000000       0.00000000      19.48088074
2
Properties=species:S:1:pos:R:3:forces:R:3 energy=1.066450971235972 pbc="F F F"
Dy       0.00000000       0.00000000       0.00000000       0.00000000       0.00000000     -14.77846432
Dy       0.00000000       0.00000000       2.06121212       0.00000000       0.00000000      14.77846432
2
Properties=species:S:1:pos:R:3:forces:R:3 energy=0.3168754795356301 pbc="F F F"
Dy       0.00000000       0.00000000       0.00000000       0.00000000       0.00000000     -10.86025238
Dy       0.00000000       0.00000000       2.12000000       0.00000000       0.00000000      10.86025238
2
Properties=species:S:1:pos:R:3:forces:R:3 energy=-0.22720665041832636 pbc="F F F"
Dy       0.00000000       0.00000000       0.00000000       0.00000000       0.00000000      -7.79435635
Dy       0.00000000       0.00000000       2.17878788       0.00000000       0.00000000       7.79435635
2
Properties=species:S:1:pos:R:3:forces:R:3 energy=-0.6162607086516252 pbc="F F F"
Dy       0.00000000       0.00000000       0.00000000       0.00000000       0.00000000      -5.57762051
Dy       0.00000000       0.00000000       2.23757576       0.00000000       0.00000000       5.57762051
2
Properties=species:S:1:pos:R:3:forces:R:3 energy=-0.8978372293614575 pbc="F F F"
Dy       0.00000000       0.00000000       0.00000000       0.00000000       0.00000000      -4.11679745
Dy       0.00000000       0.00000000       2.29636364       0.00000000       0.00000000       4.11679745
2
Properties=species:S:1:pos:R:3:forces:R:3 energy=-1.112333985215456 pbc="F F F"
Dy       0.00000000       0.00000000       0.00000000       0.00000000       0.00000000      -3.26946330
Dy       0.00000000       0.00000000       2.35515152       0.00000000       0.00000000       3.26946330
2
Properties=species:S:1:pos:R:3:forces:R:3 energy=-1.2909506628857172 pbc="F F F"
Dy       0.00000000       0.00000000       0.00000000       0.00000000       0.00000000      -2.86530828
Dy       0.00000000       0.00000000       2.41393939       0.00000000       0.00000000       2.86530828
2
Properties=species:S:1:pos:R:3:forces:R:3 energy=-1.45412686372782 pbc="F F F"
Dy       0.00000000       0.00000000       0.00000000       0.00000000       0.00000000      -2.71195054
Dy       0.00000000       0.00000000       2.47272727       0.00000000       0.00000000       2.71195054
2
Properties=species:S:1:pos:R:3:forces:R:3 energy=-1.6112732652421056 pbc="F F F"
Dy       0.00000000       0.00000000       0.00000000       0.00000000       0.00000000      -2.63544440
Dy       0.00000000       0.00000000       2.53151515       0.00000000       0.00000000       2.63544440
2
Properties=species:S:1:pos:R:3:forces:R:3 energy=-1.763262921579051 pbc="F F F"
Dy       0.00000000       0.00000000       0.00000000       0.00000000       0.00000000      -2.52406001
Dy       0.00000000       0.00000000       2.59030303       0.00000000       0.00000000       2.52406001
2
Properties=species:S:1:pos:R:3:forces:R:3 energy=-1.906475505795517 pbc="F F F"
Dy       0.00000000       0.00000000       0.00000000       0.00000000       0.00000000      -2.33431125
Dy       0.00000000       0.00000000       2.64909091       0.00000000       0.00000000       2.33431125
2
Properties=species:S:1:pos:R:3:forces:R:3 energy=-2.036214776425015 pbc="F F F"
Dy       0.00000000       0.00000000       0.00000000       0.00000000       0.00000000      -2.06836033
Dy       0.00000000       0.00000000       2.70787879       0.00000000       0.00000000       2.06836033
2
Properties=species:S:1:pos:R:3:forces:R:3 energy=-2.1486068713722055 pbc="F F F"
Dy       0.00000000       0.00000000       0.00000000       0.00000000       0.00000000      -1.74858856
Dy       0.00000000       0.00000000       2.76666667       0.00000000       0.00000000       1.74858856
2
Properties=species:S:1:pos:R:3:forces:R:3 energy=-2.241269066859584 pbc="F F F"
Dy       0.00000000       0.00000000       0.00000000       0.00000000       0.00000000      -1.40132868
Dy       0.00000000       0.00000000       2.82545455       0.00000000       0.00000000       1.40132868
2
Properties=species:S:1:pos:R:3:forces:R:3 energy=-2.3132784939084665 pbc="F F F"
Dy       0.00000000       0.00000000       0.00000000       0.00000000       0.00000000      -1.04917610
Dy       0.00000000       0.00000000       2.88424242       0.00000000       0.00000000       1.04917610
2
Properties=species:S:1:pos:R:3:forces:R:3 energy=-2.364858673760317 pbc="F F F"
Dy       0.00000000       0.00000000       0.00000000       0.00000000       0.00000000      -0.70864230
Dy       0.00000000       0.00000000       2.94303030       0.00000000       0.00000000       0.70864230
2
Properties=species:S:1:pos:R:3:forces:R:3 energy=-2.3970443036904343 pbc="F F F"
Dy       0.00000000       0.00000000       0.00000000       0.00000000       0.00000000      -0.39078853
Dy       0.00000000       0.00000000       3.00181818       0.00000000       0.00000000       0.39078853
2
Properties=species:S:1:pos:R:3:forces:R:3 energy=-2.4113992411709324 pbc="F F F"
Dy       0.00000000       0.00000000       0.00000000       0.00000000       0.00000000      -0.10310762
Dy       0.00000000       0.00000000       3.06060606       0.00000000       0.00000000       0.10310762
2
Properties=species:S:1:pos:R:3:forces:R:3 energy=-2.409860570120528 pbc="F F F"
Dy       0.00000000       0.00000000       0.00000000       0.00000000       0.00000000       0.14924201
Dy       0.00000000       0.00000000       3.11939394       0.00000000       0.00000000      -0.14924201
2
Properties=species:S:1:pos:R:3:forces:R:3 energy=-2.39460029045018 pbc="F F F"
Dy       0.00000000       0.00000000       0.00000000       0.00000000       0.00000000       0.36348364
Dy       0.00000000       0.00000000       3.17818182       0.00000000       0.00000000      -0.36348364
2
Properties=species:S:1:pos:R:3:forces:R:3 energy=-2.367871048571124 pbc="F F F"
Dy       0.00000000       0.00000000       0.00000000       0.00000000       0.00000000       0.53968507
Dy       0.00000000       0.00000000       3.23696970       0.00000000       0.00000000      -0.53968507
2
Properties=species:S:1:pos:R:3:forces:R:3 energy=-2.3318392824033634 pbc="F F F"
Dy       0.00000000       0.00000000       0.00000000       0.00000000       0.00000000       0.68059993
Dy       0.00000000       0.00000000       3.29575758       0.00000000       0.00000000      -0.68059993
2
Properties=species:S:1:pos:R:3:forces:R:3 energy=-2.2884546566933444 pbc="F F F"
Dy       0.00000000       0.00000000       0.00000000       0.00000000       0.00000000       0.79064530
Dy       0.00000000       0.00000000       3.35454545       0.00000000       0.00000000      -0.79064530
2
Properties=species:S:1:pos:R:3:forces:R:3 energy=-2.2393882239029494 pbc="F F F"
Dy       0.00000000       0.00000000       0.00000000       0.00000000       0.00000000       0.87466317
Dy       0.00000000       0.00000000       3.41333333       0.00000000       0.00000000      -0.87466317
2
Properties=species:S:1:pos:R:3:forces:R:3 energy=-2.1860388995249957 pbc="F F F"
Dy       0.00000000       0.00000000       0.00000000       0.00000000       0.00000000       0.93701816
Dy       0.00000000       0.00000000       3.47212121       0.00000000       0.00000000      -0.93701816
2
Properties=species:S:1:pos:R:3:forces:R:3 energy=-2.1295732779859473 pbc="F F F"
Dy       0.00000000       0.00000000       0.00000000       0.00000000       0.00000000       0.98121387
Dy       0.00000000       0.00000000       3.53090909       0.00000000       0.00000000      -0.98121387
2
Properties=species:S:1:pos:R:3:forces:R:3 energy=-2.0709761088605494 pbc="F F F"
Dy       0.00000000       0.00000000       0.00000000       0.00000000       0.00000000       1.00986540
Dy       0.00000000       0.00000000       3.58969697       0.00000000       0.00000000      -1.00986540
2
Properties=species:S:1:pos:R:3:forces:R:3 energy=-2.011104800859729 pbc="F F F"
Dy       0.00000000       0.00000000       0.00000000       0.00000000       0.00000000       1.02485633
Dy       0.00000000       0.00000000       3.64848485       0.00000000       0.00000000      -1.02485633
2
Properties=species:S:1:pos:R:3:forces:R:3 energy=-1.950718891867693 pbc="F F F"
Dy       0.00000000       0.00000000       0.00000000       0.00000000       0.00000000       1.02756870
Dy       0.00000000       0.00000000       3.70727273       0.00000000       0.00000000      -1.02756870
2
Properties=species:S:1:pos:R:3:forces:R:3 energy=-1.8905039518203746 pbc="F F F"
Dy       0.00000000       0.00000000       0.00000000       0.00000000       0.00000000       1.01920140
Dy       0.00000000       0.00000000       3.76606061       0.00000000       0.00000000      -1.01920140
2
Properties=species:S:1:pos:R:3:forces:R:3 energy=-1.8310756888423394 pbc="F F F"
Dy       0.00000000       0.00000000       0.00000000       0.00000000       0.00000000       1.00113893
Dy       0.00000000       0.00000000       3.82484848       0.00000000       0.00000000      -1.00113893
2
Properties=species:S:1:pos:R:3:forces:R:3 energy=-1.772948287925013 pbc="F F F"
Dy       0.00000000       0.00000000       0.00000000       0.00000000       0.00000000       0.97522914
Dy       0.00000000       0.00000000       3.88363636       0.00000000       0.00000000      -0.97522914
2
Properties=species:S:1:pos:R:3:forces:R:3 energy=-1.7165197556876635 pbc="F F F"
Dy       0.00000000       0.00000000       0.00000000       0.00000000       0.00000000       0.94382155
Dy       0.00000000       0.00000000       3.94242424       0.00000000       0.00000000      -0.94382155
2
Properties=species:S:1:pos:R:3:forces:R:3 energy=-1.662035706095955 pbc="F F F"
Dy       0.00000000       0.00000000       0.00000000       0.00000000       0.00000000       0.90951753
Dy       0.00000000       0.00000000       4.00121212       0.00000000       0.00000000      -0.90951753
2
Properties=species:S:1:pos:R:3:forces:R:3 energy=-1.609591399691159 pbc="F F F"
Dy       0.00000000       0.00000000       0.00000000       0.00000000       0.00000000       0.87476075
Dy       0.00000000       0.00000000       4.06000000       0.00000000       0.00000000      -0.87476075
2
Properties=species:S:1:pos:R:3:forces:R:3 energy=-1.5591562448509546 pbc="F F F"
Dy       0.00000000       0.00000000       0.00000000       0.00000000       0.00000000       0.84147084
Dy       0.00000000       0.00000000       4.11878788       0.00000000       0.00000000      -0.84147084
2
Properties=species:S:1:pos:R:3:forces:R:3 energy=-1.5106023268234974 pbc="F F F"
Dy       0.00000000       0.00000000       0.00000000       0.00000000       0.00000000       0.81083268
Dy       0.00000000       0.00000000       4.17757576       0.00000000       0.00000000      -0.81083268
2
Properties=species:S:1:pos:R:3:forces:R:3 energy=-1.4637593885524793 pbc="F F F"
Dy       0.00000000       0.00000000       0.00000000       0.00000000       0.00000000       0.78330839
Dy       0.00000000       0.00000000       4.23636364       0.00000000       0.00000000      -0.78330839
2
Properties=species:S:1:pos:R:3:forces:R:3 energy=-1.418445053983828 pbc="F F F"
Dy       0.00000000       0.00000000       0.00000000       0.00000000       0.00000000       0.75875121
Dy       0.00000000       0.00000000       4.29515152       0.00000000       0.00000000      -0.75875121
2
Properties=species:S:1:pos:R:3:forces:R:3 energy=-1.3745017397639097 pbc="F F F"
Dy       0.00000000       0.00000000       0.00000000       0.00000000       0.00000000       0.73662394
Dy       0.00000000       0.00000000       4.35393939       0.00000000       0.00000000      -0.73662394
2
Properties=species:S:1:pos:R:3:forces:R:3 energy=-1.3318042402845505 pbc="F F F"
Dy       0.00000000       0.00000000       0.00000000       0.00000000       0.00000000       0.71616364
Dy       0.00000000       0.00000000       4.41272727       0.00000000       0.00000000      -0.71616364
2
Properties=species:S:1:pos:R:3:forces:R:3 energy=-1.2902806538331018 pbc="F F F"
Dy       0.00000000       0.00000000       0.00000000       0.00000000       0.00000000       0.69656295
Dy       0.00000000       0.00000000       4.47151515       0.00000000       0.00000000      -0.69656295
2
Properties=species:S:1:pos:R:3:forces:R:3 energy=-1.249901922685231 pbc="F F F"
Dy       0.00000000       0.00000000       0.00000000       0.00000000       0.00000000       0.67709744
Dy       0.00000000       0.00000000       4.53030303       0.00000000       0.00000000      -0.67709744
2
Properties=species:S:1:pos:R:3:forces:R:3 energy=-1.210679211668502 pbc="F F F"
Dy       0.00000000       0.00000000       0.00000000       0.00000000       0.00000000       0.65720624
Dy       0.00000000       0.00000000       4.58909091       0.00000000       0.00000000      -0.65720624
2
Properties=species:S:1:pos:R:3:forces:R:3 energy=-1.1726466988431221 pbc="F F F"
Dy       0.00000000       0.00000000       0.00000000       0.00000000       0.00000000       0.63654846
Dy       0.00000000       0.00000000       4.64787879       0.00000000       0.00000000      -0.63654846
2
Properties=species:S:1:pos:R:3:forces:R:3 energy=-1.1358535746403022 pbc="F F F"
Dy       0.00000000       0.00000000       0.00000000       0.00000000       0.00000000       0.61498845
Dy       0.00000000       0.00000000       4.70666667       0.00000000       0.00000000      -0.61498845
2
Properties=species:S:1:pos:R:3:forces:R:3 energy=-1.1003559062882493 pbc="F F F"
Dy       0.00000000       0.00000000       0.00000000       0.00000000       0.00000000       0.59257478
Dy       0.00000000       0.00000000       4.76545455       0.00000000       0.00000000      -0.59257478
2
Properties=species:S:1:pos:R:3:forces:R:3 energy=-1.0661925943815909 pbc="F F F"
Dy       0.00000000       0.00000000       0.00000000       0.00000000       0.00000000       0.56952113
Dy       0.00000000       0.00000000       4.82424242       0.00000000       0.00000000      -0.56952113
2
Properties=species:S:1:pos:R:3:forces:R:3 energy=-1.033400801564882 pbc="F F F"
Dy       0.00000000       0.00000000       0.00000000       0.00000000       0.00000000       0.54619455
Dy       0.00000000       0.00000000       4.88303030       0.00000000       0.00000000      -0.54619455
2
Properties=species:S:1:pos:R:3:forces:R:3 energy=-1.0019696042935944 pbc="F F F"
Dy       0.00000000       0.00000000       0.00000000       0.00000000       0.00000000       0.52314389
Dy       0.00000000       0.00000000       4.94181818       0.00000000       0.00000000      -0.52314389
2
Properties=species:S:1:pos:R:3:forces:R:3 energy=-0.9718708870470437 pbc="F F F"
Dy       0.00000000       0.00000000       0.00000000       0.00000000       0.00000000       0.50108635
Dy       0.00000000       0.00000000       5.00060606       0.00000000       0.00000000      -0.50108635
2
Properties=species:S:1:pos:R:3:forces:R:3 energy=-0.9430185105628717 pbc="F F F"
Dy       0.00000000       0.00000000       0.00000000       0.00000000       0.00000000       0.48076659
Dy       0.00000000       0.00000000       5.05939394       0.00000000       0.00000000      -0.48076659
2
Properties=species:S:1:pos:R:3:forces:R:3 energy=-0.9153008637246322 pbc="F F F"
Dy       0.00000000       0.00000000       0.00000000       0.00000000       0.00000000       0.46263480
Dy       0.00000000       0.00000000       5.11818182       0.00000000       0.00000000      -0.46263480
2
Properties=species:S:1:pos:R:3:forces:R:3 energy=-0.8885878994937205 pbc="F F F"
Dy       0.00000000       0.00000000       0.00000000       0.00000000       0.00000000       0.44637513
Dy       0.00000000       0.00000000       5.17696970       0.00000000       0.00000000      -0.44637513
2
Properties=species:S:1:pos:R:3:forces:R:3 energy=-0.8628144063499231 pbc="F F F"
Dy       0.00000000       0.00000000       0.00000000       0.00000000       0.00000000       0.43028992
Dy       0.00000000       0.00000000       5.23575758       0.00000000       0.00000000      -0.43028992
2
Properties=species:S:1:pos:R:3:forces:R:3 energy=-0.8380597252920013 pbc="F F F"
Dy       0.00000000       0.00000000       0.00000000       0.00000000       0.00000000       0.41099820
Dy       0.00000000       0.00000000       5.29454545       0.00000000       0.00000000      -0.41099820
2
Properties=species:S:1:pos:R:3:forces:R:3 energy=-0.8146197686716669 pbc="F F F"
Dy       0.00000000       0.00000000       0.00000000       0.00000000       0.00000000       0.38530159
Dy       0.00000000       0.00000000       5.35333333       0.00000000       0.00000000      -0.38530159
2
Properties=species:S:1:pos:R:3:forces:R:3 energy=-0.7928283369718815 pbc="F F F"
Dy       0.00000000       0.00000000       0.00000000       0.00000000       0.00000000       0.35641941
Dy       0.00000000       0.00000000       5.41212121       0.00000000       0.00000000      -0.35641941
2
Properties=species:S:1:pos:R:3:forces:R:3 energy=-0.7725603244280388 pbc="F F F"
Dy       0.00000000       0.00000000       0.00000000       0.00000000       0.00000000       0.33480838
Dy       0.00000000       0.00000000       5.47090909       0.00000000       0.00000000      -0.33480838
2
Properties=species:S:1:pos:R:3:forces:R:3 energy=-0.753363900539297 pbc="F F F"
Dy       0.00000000       0.00000000       0.00000000       0.00000000       0.00000000       0.31737810
Dy       0.00000000       0.00000000       5.52969697       0.00000000       0.00000000      -0.31737810
2
Properties=species:S:1:pos:R:3:forces:R:3 energy=-0.7355114490778164 pbc="F F F"
Dy       0.00000000       0.00000000       0.00000000       0.00000000       0.00000000       0.28727987
Dy       0.00000000       0.00000000       5.58848485       0.00000000       0.00000000      -0.28727987
2
Properties=species:S:1:pos:R:3:forces:R:3 energy=-0.7197959537024556 pbc="F F F"
Dy       0.00000000       0.00000000       0.00000000       0.00000000       0.00000000       0.24763598
Dy       0.00000000       0.00000000       5.64727273       0.00000000       0.00000000      -0.24763598
2
Properties=species:S:1:pos:R:3:forces:R:3 energy=-0.7061315874374472 pbc="F F F"
Dy       0.00000000       0.00000000       0.00000000       0.00000000       0.00000000       0.22162990
Dy       0.00000000       0.00000000       5.70606061       0.00000000       0.00000000      -0.22162990
2
Properties=species:S:1:pos:R:3:forces:R:3 energy=-0.6931079257823239 pbc="F F F"
Dy       0.00000000       0.00000000       0.00000000       0.00000000       0.00000000       0.22410640
Dy       0.00000000       0.00000000       5.76484848       0.00000000       0.00000000      -0.22410640
2
Properties=species:S:1:pos:R:3:forces:R:3 energy=-0.6799890358125312 pbc="F F F"
Dy       0.00000000       0.00000000       0.00000000       0.00000000       0.00000000       0.21493919
Dy       0.00000000       0.00000000       5.82363636       0.00000000       0.00000000      -0.21493919
2
Properties=species:S:1:pos:R:3:forces:R:3 energy=-0.6690437033438338 pbc="F F F"
Dy       0.00000000       0.00000000       0.00000000       0.00000000       0.00000000       0.15013117
Dy       0.00000000       0.00000000       5.88242424       0.00000000       0.00000000      -0.15013117
2
Properties=species:S:1:pos:R:3:forces:R:3 energy=-0.6626873496176244 pbc="F F F"
Dy       0.00000000       0.00000000       0.00000000       0.00000000       0.00000000       0.06855983
Dy       0.00000000       0.00000000       5.94121212       0.00000000       0.00000000      -0.06855983
2
Properties=species:S:1:pos:R:3:forces:R:3 energy=-0.6600183388687604 pbc="F F F"
Dy       0.00000000       0.00000000       0.00000000       0.00000000       0.00000000       0.03349671
Dy       0.00000000       0.00000000       6.00000000       0.00000000       0.00000000      -0.03349671
