2
Properties=species:S:1:pos:R:3:forces:R:3 energy=41994.285310005274 pbc="F F F"
Dy       0.00000000       0.00000000       0.00000000       0.00000000       0.00000000 -221336.45312500
Dy       0.00000000       0.00000000       0.18000000       0.00000000       0.00000000  221336.45312500
2
Properties=species:S:1:pos:R:3:forces:R:3 energy=34069.086091255274 pbc="F F F"
Dy       0.00000000       0.00000000       0.00000000       0.00000000       0.00000000  -79428.56250000
Dy       0.00000000       0.00000000       0.23878788       0.00000000       0.00000000   79428.56250000
2
Properties=species:S:1:pos:R:3:forces:R:3 energy=30741.59976313027 pbc="F F F"
Dy       0.00000000       0.00000000       0.00000000       0.00000000       0.00000000  -42167.85937500
Dy       0.00000000       0.00000000       0.29757576       0.00000000       0.00000000   42167.85937500
2
Properties=species:S:1:pos:R:3:forces:R:3 energy=28506.79116939294 pbc="F F F"
Dy       0.00000000       0.00000000       0.00000000       0.00000000       0.00000000  -37054.26562500
Dy       0.00000000       0.00000000       0.35636364       0.00000000       0.00000000   37054.26562500
2
Properties=species:S:1:pos:R:3:forces:R:3 energy=26126.03726314294 pbc="F F F"
Dy       0.00000000       0.00000000       0.00000000       0.00000000       0.00000000  -45452.24218750
Dy       0.00000000       0.00000000       0.41515152       0.00000000       0.00000000   45452.24218750
2
Properties=species:S:1:pos:R:3:forces:R:3 energy=23046.902497530613 pbc="F F F"
Dy       0.00000000       0.00000000       0.00000000       0.00000000       0.00000000  -59796.83593750
Dy       0.00000000       0.00000000       0.47393939       0.00000000       0.00000000   59796.83593750
2
Properties=species:S:1:pos:R:3:forces:R:3 energy=19095.320466293284 pbc="F F F"
Dy       0.00000000       0.00000000       0.00000000       0.00000000       0.00000000  -74098.21093750
Dy       0.00000000       0.00000000       0.53272727       0.00000000       0.00000000   74098.21093750
2
Properties=species:S:1:pos:R:3:forces:R:3 energy=14461.962067893799 pbc="F F F"
Dy       0.00000000       0.00000000       0.00000000       0.00000000       0.00000000  -81931.96875000
Dy       0.00000000       0.00000000       0.59151515       0.00000000       0.00000000   81931.96875000
2
Properties=species:S:1:pos:R:3:forces:R:3 energy=9697.518708569483 pbc="F F F"
Dy       0.00000000       0.00000000       0.00000000       0.00000000       0.00000000  -77908.14843750
Dy       0.00000000       0.00000000       0.65030303       0.00000000       0.00000000   77908.14843750
2
Properties=species:S:1:pos:R:3:forces:R:3 energy=5555.455232070341 pbc="F F F"
Dy       0.00000000       0.00000000       0.00000000       0.00000000       0.00000000  -61189.48046875
Dy       0.00000000       0.00000000       0.70909091       0.00000000       0.00000000   61189.48046875
2
Properties=species:S:1:pos:R:3:forces:R:3 energy=2636.7355056218817 pbc="F F F"
Dy       0.00000000       0.00000000       0.00000000       0.00000000       0.00000000  -37809.70703125
Dy       0.00000000       0.00000000       0.76787879       0.00000000       0.00000000   37809.70703125
2
Properties=species:S:1:pos:R:3:forces:R:3 energy=1045.4935624272334 pbc="F F F"
Dy       0.00000000       0.00000000       0.00000000       0.00000000       0.00000000  -17735.25195312
Dy       0.00000000       0.00000000       0.82666667       0.00000000       0.00000000   17735.25195312
2
Properties=species:S:1:pos:R:3:forces:R:3 energy=382.0831317851274 pbc="F F F"
Dy       0.00000000       0.00000000       0.00000000       0.00000000       0.00000000   -6519.08642578
Dy       0.00000000       0.00000000       0.88545455       0.00000000       0.00000000    6519.08642578
2
Properties=species:S:1:pos:R:3:forces:R:3 energy=164.43647989290122 pbc="F F F"
Dy       0.00000000       0.00000000       0.00000000       0.00000000       0.00000000   -1834.88403320
Dy       0.00000000       0.00000000       0.94424242       0.00000000       0.00000000    1834.88403320
2
Properties=species:S:1:pos:R:3:forces:R:3 energy=125.7400692415977 pbc="F F F"
Dy       0.00000000       0.00000000       0.00000000       0.00000000       0.00000000    -229.89628601
Dy       0.00000000       0.00000000       1.00303030       0.00000000       0.00000000     229.89628601
2
Properties=species:S:1:pos:R:3:forces:R:3 energy=109.61161375943946 pbc="F F F"
Dy       0.00000000       0.00000000       0.00000000       0.00000000       0.00000000    -296.62872314
Dy       0.00000000       0.00000000       1.06181818       0.00000000       0.00000000     296.62872314
2
Properties=species:S:1:pos:R:3:forces:R:3 energy=91.66919363627186 pbc="F F F"
Dy       0.00000000       0.00000000       0.00000000       0.00000000       0.00000000    -321.30746460
Dy       0.00000000       0.00000000       1.12060606       0.00000000       0.00000000     321.30746460
2
Properties=species:S:1:pos:R:3:forces:R:3 energy=75.01118999060307 pbc="F F F"
Dy       0.00000000       0.00000000       0.00000000       0.00000000       0.00000000    -243.15565491
Dy       0.00000000       0.00000000       1.17939394       0.00000000       0.00000000     243.15565491
2
Properties=species:S:1:pos:R:3:forces:R:3 energy=62.568682724948914 pbc="F F F"
Dy       0.00000000       0.00000000       0.00000000       0.00000000       0.00000000    -185.49211121
Dy       0.00000000       0.00000000       1.23818182       0.00000000       0.00000000     185.49211121
2
Properties=species:S:1:pos:R:3:forces:R:3 energy=52.66091631277404 pbc="F F F"
Dy       0.00000000       0.00000000       0.00000000       0.00000000       0.00000000    -154.52056885
Dy       0.00000000       0.00000000       1.29696970       0.00000000       0.00000000     154.52056885
2
Properties=species:S:1:pos:R:3:forces:R:3 energy=44.22318592241536 pbc="F F F"
Dy       0.00000000       0.00000000       0.00000000       0.00000000       0.00000000    -133.14266968
Dy       0.00000000       0.00000000       1.35575758       0.00000000       0.00000000     133.14266968
2
Properties=species:S:1:pos:R:3:forces:R:3 energy=36.954332775556466 pbc="F F F"
Dy       0.00000000       0.00000000       0.00000000       0.00000000       0.00000000    -114.75917816
Dy       0.00000000       0.00000000       1.41454545       0.00000000       0.00000000     114.75917816
2
Properties=species:S:1:pos:R:3:forces:R:3 energy=30.634268014827423 pbc="F F F"
Dy       0.00000000       0.00000000       0.00000000       0.00000000       0.00000000    -101.05401611
Dy       0.00000000       0.00000000       1.47333333       0.00000000       0.00000000     101.05401611
2
Properties=species:S:1:pos:R:3:forces:R:3 energy=25.020996934495617 pbc="F F F"
Dy       0.00000000       0.00000000       0.00000000       0.00000000       0.00000000     -89.92424011
Dy       0.00000000       0.00000000       1.53212121       0.00000000       0.00000000      89.92424011
2
Properties=species:S:1:pos:R:3:forces:R:3 energy=20.08795601686475 pbc="F F F"
Dy       0.00000000       0.00000000       0.00000000       0.00000000       0.00000000     -77.65904236
Dy       0.00000000       0.00000000       1.59090909       0.00000000       0.00000000      77.65904236
2
Properties=species:S:1:pos:R:3:forces:R:3 energy=15.89439342258521 pbc="F F F"
Dy       0.00000000       0.00000000       0.00000000       0.00000000       0.00000000     -65.19545746
Dy       0.00000000       0.00000000       1.64969697       0.00000000       0.00000000      65.19545746
2
Properties=species:S:1:pos:R:3:forces:R:3 energy=12.387191602322414 pbc="F F F"
Dy       0.00000000       0.00000000       0.00000000       0.00000000       0.00000000     -54.45019913
Dy       0.00000000       0.00000000       1.70848485       0.00000000       0.00000000      54.45019913
2
Properties=species:S:1:pos:R:3:forces:R:3 energy=9.458378613736416 pbc="F F F"
Dy       0.00000000       0.00000000       0.00000000       0.00000000       0.00000000     -45.43402481
Dy       0.00000000       0.00000000       1.76727273       0.00000000       0.00000000      45.43402481
2
Properties=species:S:1:pos:R:3:forces:R:3 energy=7.020341642492927 pbc="F F F"
Dy       0.00000000       0.00000000       0.00000000       0.00000000       0.00000000     -37.69458771
Dy       0.00000000       0.00000000       1.82606061       0.00000000       0.00000000      37.69458771
2
Properties=species:S:1:pos:R:3:forces:R:3 energy=5.007502958161516 pbc="F F F"
Dy       0.00000000       0.00000000       0.00000000       0.00000000       0.00000000     -30.92149162
Dy       0.00000000       0.00000000       1.88484848       0.00000000       0.00000000      30.92149162
2
Properties=species:S:1:pos:R:3:forces:R:3 energy=3.370533145176548 pbc="F F F"
Dy       0.00000000       0.00000000       0.00000000       0.00000000       0.00000000     -24.87856102
Dy       0.00000000       0.00000000       1.94363636       0.00000000       0.00000000      24.87856102
2
Properties=species:S:1:pos:R:3:forces:R:3 energy=2.0698445837857626 pbc="F F F"
Dy       0.00000000       0.00000000       0.00000000       0.00000000       0.00000000     -19.48088264
Dy       0.00000000       0.00000000       2.00242424       0.00000000       0.00000000      19.48088264
2
Properties=species:S:1:pos:R:3:forces:R:3 energy=1.0664521633288675 pbc="F F F"
Dy       0.00000000       0.00000000       0.00000000       0.00000000       0.00000000     -14.77846813
Dy       0.00000000       0.00000000       2.06121212       0.00000000       0.00000000      14.77846813
2
Properties=species:S:1:pos:R:3:forces:R:3 energy=0.31687488348918236 pbc="F F F"
Dy       0.00000000       0.00000000       0.00000000       0.00000000       0.00000000     -10.86025620
Dy       0.00000000       0.00000000       2.12000000       0.00000000       0.00000000      10.86025620
2
Properties=species:S:1:pos:R:3:forces:R:3 energy=-0.22720563713936517 pbc="F F F"
Dy       0.00000000       0.00000000       0.00000000       0.00000000       0.00000000      -7.79436064
Dy       0.00000000       0.00000000       2.17878788       0.00000000       0.00000000       7.79436064
2
Properties=species:S:1:pos:R:3:forces:R:3 energy=-0.6162605000353685 pbc="F F F"
Dy       0.00000000       0.00000000       0.00000000       0.00000000       0.00000000      -5.57762480
Dy       0.00000000       0.00000000       2.23757576       0.00000000       0.00000000       5.57762480
2
Properties=species:S:1:pos:R:3:forces:R:3 energy=-0.8978374677800366 pbc="F F F"
Dy       0.00000000       0.00000000       0.00000000       0.00000000       0.00000000      -4.11679888
Dy       0.00000000       0.00000000       2.29636364       0.00000000       0.00000000       4.11679888
2
Properties=species:S:1:pos:R:3:forces:R:3 energy=-1.1123333295643634 pbc="F F F"
Dy       0.00000000       0.00000000       0.00000000       0.00000000       0.00000000      -3.26946449
Dy       0.00000000       0.00000000       2.35515152       0.00000000       0.00000000       3.26946449
2
Properties=species:S:1:pos:R:3:forces:R:3 energy=-1.2909516165600337 pbc="F F F"
Dy       0.00000000       0.00000000       0.00000000       0.00000000       0.00000000      -2.86530638
Dy       0.00000000       0.00000000       2.41393939       0.00000000       0.00000000       2.86530638
2
Properties=species:S:1:pos:R:3:forces:R:3 energy=-1.4541276981928468 pbc="F F F"
Dy       0.00000000       0.00000000       0.00000000       0.00000000       0.00000000      -2.71195102
Dy       0.00000000       0.00000000       2.47272727       0.00000000       0.00000000       2.71195102
2
Properties=species:S:1:pos:R:3:forces:R:3 energy=-1.6112736228699742 pbc="F F F"
Dy       0.00000000       0.00000000       0.00000000       0.00000000       0.00000000      -2.63544369
Dy       0.00000000       0.00000000       2.53151515       0.00000000       0.00000000       2.63544369
2
Properties=species:S:1:pos:R:3:forces:R:3 energy=-1.7632612526489972 pbc="F F F"
Dy       0.00000000       0.00000000       0.00000000       0.00000000       0.00000000      -2.52405787
Dy       0.00000000       0.00000000       2.59030303       0.00000000       0.00000000       2.52405787
2
Properties=species:S:1:pos:R:3:forces:R:3 energy=-1.90647467133049 pbc="F F F"
Dy       0.00000000       0.00000000       0.00000000       0.00000000       0.00000000      -2.33430982
Dy       0.00000000       0.00000000       2.64909091       0.00000000       0.00000000       2.33430982
2
Properties=species:S:1:pos:R:3:forces:R:3 energy=-2.036214061169278 pbc="F F F"
Dy       0.00000000       0.00000000       0.00000000       0.00000000       0.00000000      -2.06835866
Dy       0.00000000       0.00000000       2.70787879       0.00000000       0.00000000       2.06835866
2
Properties=species:S:1:pos:R:3:forces:R:3 energy=-2.1486071097907846 pbc="F F F"
Dy       0.00000000       0.00000000       0.00000000       0.00000000       0.00000000      -1.74859107
Dy       0.00000000       0.00000000       2.76666667       0.00000000       0.00000000       1.74859107
2
Properties=species:S:1:pos:R:3:forces:R:3 energy=-2.241269305278163 pbc="F F F"
Dy       0.00000000       0.00000000       0.00000000       0.00000000       0.00000000      -1.40132880
Dy       0.00000000       0.00000000       2.82545455       0.00000000       0.00000000       1.40132880
2
Properties=species:S:1:pos:R:3:forces:R:3 energy=-2.31327754023415 pbc="F F F"
Dy       0.00000000       0.00000000       0.00000000       0.00000000       0.00000000      -1.04917490
Dy       0.00000000       0.00000000       2.88424242       0.00000000       0.00000000       1.04917490
2
Properties=species:S:1:pos:R:3:forces:R:3 energy=-2.364857720086001 pbc="F F F"
Dy       0.00000000       0.00000000       0.00000000       0.00000000       0.00000000      -0.70864183
Dy       0.00000000       0.00000000       2.94303030       0.00000000       0.00000000       0.70864183
2
Properties=species:S:1:pos:R:3:forces:R:3 energy=-2.397043350016118 pbc="F F F"
Dy       0.00000000       0.00000000       0.00000000       0.00000000       0.00000000      -0.39078814
Dy       0.00000000       0.00000000       3.00181818       0.00000000       0.00000000       0.39078814
2
Properties=species:S:1:pos:R:3:forces:R:3 energy=-2.411397810659458 pbc="F F F"
Dy       0.00000000       0.00000000       0.00000000       0.00000000       0.00000000      -0.10310644
Dy       0.00000000       0.00000000       3.06060606       0.00000000       0.00000000       0.10310644
2
Properties=species:S:1:pos:R:3:forces:R:3 energy=-2.409860570120528 pbc="F F F"
Dy       0.00000000       0.00000000       0.00000000       0.00000000       0.00000000       0.14924172
Dy       0.00000000       0.00000000       3.11939394       0.00000000       0.00000000      -0.14924172
2
Properties=species:S:1:pos:R:3:forces:R:3 energy=-2.3945998136130218 pbc="F F F"
Dy       0.00000000       0.00000000       0.00000000       0.00000000       0.00000000       0.36348400
Dy       0.00000000       0.00000000       3.17818182       0.00000000       0.00000000      -0.36348400
2
Properties=species:S:1:pos:R:3:forces:R:3 energy=-2.3678717638268614 pbc="F F F"
Dy       0.00000000       0.00000000       0.00000000       0.00000000       0.00000000       0.53968459
Dy       0.00000000       0.00000000       3.23696970       0.00000000       0.00000000      -0.53968459
2
Properties=species:S:1:pos:R:3:forces:R:3 energy=-2.331838805566205 pbc="F F F"
Dy       0.00000000       0.00000000       0.00000000       0.00000000       0.00000000       0.68059945
Dy       0.00000000       0.00000000       3.29575758       0.00000000       0.00000000      -0.68059945
2
Properties=species:S:1:pos:R:3:forces:R:3 energy=-2.2884544182747653 pbc="F F F"
Dy       0.00000000       0.00000000       0.00000000       0.00000000       0.00000000       0.79064375
Dy       0.00000000       0.00000000       3.35454545       0.00000000       0.00000000      -0.79064375
2
Properties=species:S:1:pos:R:3:forces:R:3 energy=-2.2393887007401077 pbc="F F F"
Dy       0.00000000       0.00000000       0.00000000       0.00000000       0.00000000       0.87466377
Dy       0.00000000       0.00000000       3.41333333       0.00000000       0.00000000      -0.87466377
2
Properties=species:S:1:pos:R:3:forces:R:3 energy=-2.1860384226878375 pbc="F F F"
Dy       0.00000000       0.00000000       0.00000000       0.00000000       0.00000000       0.93701744
Dy       0.00000000       0.00000000       3.47212121       0.00000000       0.00000000      -0.93701744
2
Properties=species:S:1:pos:R:3:forces:R:3 energy=-2.1295732779859473 pbc="F F F"
Dy       0.00000000       0.00000000       0.00000000       0.00000000       0.00000000       0.98121244
Dy       0.00000000       0.00000000       3.53090909       0.00000000       0.00000000      -0.98121244
2
Properties=species:S:1:pos:R:3:forces:R:3 energy=-2.070976704906997 pbc="F F F"
Dy       0.00000000       0.00000000       0.00000000       0.00000000       0.00000000       1.00986600
Dy       0.00000000       0.00000000       3.58969697       0.00000000       0.00000000      -1.00986600
2
Properties=species:S:1:pos:R:3:forces:R:3 energy=-2.011104324022571 pbc="F F F"
Dy       0.00000000       0.00000000       0.00000000       0.00000000       0.00000000       1.02485764
Dy       0.00000000       0.00000000       3.64848485       0.00000000       0.00000000      -1.02485764
2
Properties=species:S:1:pos:R:3:forces:R:3 energy=-1.9507186534491139 pbc="F F F"
Dy       0.00000000       0.00000000       0.00000000       0.00000000       0.00000000       1.02756810
Dy       0.00000000       0.00000000       3.70727273       0.00000000       0.00000000      -1.02756810
2
Properties=species:S:1:pos:R:3:forces:R:3 energy=-1.890503594192506 pbc="F F F"
Dy       0.00000000       0.00000000       0.00000000       0.00000000       0.00000000       1.01920152
Dy       0.00000000       0.00000000       3.76606061       0.00000000       0.00000000      -1.01920152
2
Properties=species:S:1:pos:R:3:forces:R:3 energy=-1.8310752246764699 pbc="F F F"
Dy       0.00000000       0.00000000       0.00000000       0.00000000       0.00000000       1.00113869
Dy       0.00000000       0.00000000       3.82484848       0.00000000       0.00000000      -1.00113869
2
Properties=species:S:1:pos:R:3:forces:R:3 energy=-1.772948287925013 pbc="F F F"
Dy       0.00000000       0.00000000       0.00000000       0.00000000       0.00000000       0.97522831
Dy       0.00000000       0.00000000       3.88363636       0.00000000       0.00000000      -0.97522831
2
Properties=species:S:1:pos:R:3:forces:R:3 energy=-1.716519636478374 pbc="F F F"
Dy       0.00000000       0.00000000       0.00000000       0.00000000       0.00000000       0.94382191
Dy       0.00000000       0.00000000       3.94242424       0.00000000       0.00000000      -0.94382191
2
Properties=species:S:1:pos:R:3:forces:R:3 energy=-1.662035944514534 pbc="F F F"
Dy       0.00000000       0.00000000       0.00000000       0.00000000       0.00000000       0.90951681
Dy       0.00000000       0.00000000       4.00121212       0.00000000       0.00000000      -0.90951681
2
Properties=species:S:1:pos:R:3:forces:R:3 energy=-1.609591399691159 pbc="F F F"
Dy       0.00000000       0.00000000       0.00000000       0.00000000       0.00000000       0.87476039
Dy       0.00000000       0.00000000       4.06000000       0.00000000       0.00000000      -0.87476039
2
Properties=species:S:1:pos:R:3:forces:R:3 energy=-1.5591554103859278 pbc="F F F"
Dy       0.00000000       0.00000000       0.00000000       0.00000000       0.00000000       0.84147054
Dy       0.00000000       0.00000000       4.11878788       0.00000000       0.00000000      -0.84147054
2
Properties=species:S:1:pos:R:3:forces:R:3 energy=-1.5106023268234974 pbc="F F F"
Dy       0.00000000       0.00000000       0.00000000       0.00000000       0.00000000       0.81083256
Dy       0.00000000       0.00000000       4.17757576       0.00000000       0.00000000      -0.81083256
2
Properties=species:S:1:pos:R:3:forces:R:3 energy=-1.4637592820144782 pbc="F F F"
Dy       0.00000000       0.00000000       0.00000000       0.00000000       0.00000000       0.78330755
Dy       0.00000000       0.00000000       4.23636364       0.00000000       0.00000000      -0.78330755
2
Properties=species:S:1:pos:R:3:forces:R:3 energy=-1.418445053983828 pbc="F F F"
Dy       0.00000000       0.00000000       0.00000000       0.00000000       0.00000000       0.75875115
Dy       0.00000000       0.00000000       4.29515152       0.00000000       0.00000000      -0.75875115
2
Properties=species:S:1:pos:R:3:forces:R:3 energy=-1.37450162055462 pbc="F F F"
Dy       0.00000000       0.00000000       0.00000000       0.00000000       0.00000000       0.73662478
Dy       0.00000000       0.00000000       4.35393939       0.00000000       0.00000000      -0.73662478
2
Properties=species:S:1:pos:R:3:forces:R:3 energy=-1.3318042592914832 pbc="F F F"
Dy       0.00000000       0.00000000       0.00000000       0.00000000       0.00000000       0.71616399
Dy       0.00000000       0.00000000       4.41272727       0.00000000       0.00000000      -0.71616399
2
Properties=species:S:1:pos:R:3:forces:R:3 energy=-1.2902806538331018 pbc="F F F"
Dy       0.00000000       0.00000000       0.00000000       0.00000000       0.00000000       0.69656402
Dy       0.00000000       0.00000000       4.47151515       0.00000000       0.00000000      -0.69656402
2
Properties=species:S:1:pos:R:3:forces:R:3 energy=-1.2499018034759415 pbc="F F F"
Dy       0.00000000       0.00000000       0.00000000       0.00000000       0.00000000       0.67709744
Dy       0.00000000       0.00000000       4.53030303       0.00000000       0.00000000      -0.67709744
2
Properties=species:S:1:pos:R:3:forces:R:3 energy=-1.2106792306754348 pbc="F F F"
Dy       0.00000000       0.00000000       0.00000000       0.00000000       0.00000000       0.65720785
Dy       0.00000000       0.00000000       4.58909091       0.00000000       0.00000000      -0.65720785
2
Properties=species:S:1:pos:R:3:forces:R:3 energy=-1.1726468180524117 pbc="F F F"
Dy       0.00000000       0.00000000       0.00000000       0.00000000       0.00000000       0.63654906
Dy       0.00000000       0.00000000       4.64787879       0.00000000       0.00000000      -0.63654906
2
Properties=species:S:1:pos:R:3:forces:R:3 energy=-1.1358535746403022 pbc="F F F"
Dy       0.00000000       0.00000000       0.00000000       0.00000000       0.00000000       0.61498696
Dy       0.00000000       0.00000000       4.70666667       0.00000000       0.00000000      -0.61498696
2
Properties=species:S:1:pos:R:3:forces:R:3 energy=-1.1003553102418016 pbc="F F F"
Dy       0.00000000       0.00000000       0.00000000       0.00000000       0.00000000       0.59257621
Dy       0.00000000       0.00000000       4.76545455       0.00000000       0.00000000      -0.59257621
2
Properties=species:S:1:pos:R:3:forces:R:3 energy=-1.0661933096373282 pbc="F F F"
Dy       0.00000000       0.00000000       0.00000000       0.00000000       0.00000000       0.56951982
Dy       0.00000000       0.00000000       4.82424242       0.00000000       0.00000000      -0.56951982
2
Properties=species:S:1:pos:R:3:forces:R:3 energy=-1.033400801564882 pbc="F F F"
Dy       0.00000000       0.00000000       0.00000000       0.00000000       0.00000000       0.54619461
Dy       0.00000000       0.00000000       4.88303030       0.00000000       0.00000000      -0.54619461
2
Properties=species:S:1:pos:R:3:forces:R:3 energy=-1.0019696042935944 pbc="F F F"
Dy       0.00000000       0.00000000       0.00000000       0.00000000       0.00000000       0.52314454
Dy       0.00000000       0.00000000       4.94181818       0.00000000       0.00000000      -0.52314454
2
Properties=species:S:1:pos:R:3:forces:R:3 energy=-0.9718690989077005 pbc="F F F"
Dy       0.00000000       0.00000000       0.00000000       0.00000000       0.00000000       0.50108576
Dy       0.00000000       0.00000000       5.00060606       0.00000000       0.00000000      -0.50108576
2
Properties=species:S:1:pos:R:3:forces:R:3 energy=-0.9430185105628717 pbc="F F F"
Dy       0.00000000       0.00000000       0.00000000       0.00000000       0.00000000       0.48076645
Dy       0.00000000       0.00000000       5.05939394       0.00000000       0.00000000      -0.48076645
2
Properties=species:S:1:pos:R:3:forces:R:3 energy=-0.9152989563759993 pbc="F F F"
Dy       0.00000000       0.00000000       0.00000000       0.00000000       0.00000000       0.46263447
Dy       0.00000000       0.00000000       5.11818182       0.00000000       0.00000000      -0.46263447
2
Properties=species:S:1:pos:R:3:forces:R:3 energy=-0.8885877929557195 pbc="F F F"
Dy       0.00000000       0.00000000       0.00000000       0.00000000       0.00000000       0.44637203
Dy       0.00000000       0.00000000       5.17696970       0.00000000       0.00000000      -0.44637203
2
Properties=species:S:1:pos:R:3:forces:R:3 energy=-0.8628142871406336 pbc="F F F"
Dy       0.00000000       0.00000000       0.00000000       0.00000000       0.00000000       0.43028542
Dy       0.00000000       0.00000000       5.23575758       0.00000000       0.00000000      -0.43028542
2
Properties=species:S:1:pos:R:3:forces:R:3 energy=-0.8380607981756073 pbc="F F F"
Dy       0.00000000       0.00000000       0.00000000       0.00000000       0.00000000       0.41098866
Dy       0.00000000       0.00000000       5.29454545       0.00000000       0.00000000      -0.41098866
2
Properties=species:S:1:pos:R:3:forces:R:3 energy=-0.8146196684693102 pbc="F F F"
Dy       0.00000000       0.00000000       0.00000000       0.00000000       0.00000000       0.38530901
Dy       0.00000000       0.00000000       5.35333333       0.00000000       0.00000000      -0.38530901
2
Properties=species:S:1:pos:R:3:forces:R:3 energy=-0.7928256547628666 pbc="F F F"
Dy       0.00000000       0.00000000       0.00000000       0.00000000       0.00000000       0.35641903
Dy       0.00000000       0.00000000       5.41212121       0.00000000       0.00000000      -0.35641903
2
Properties=species:S:1:pos:R:3:forces:R:3 energy=-0.772560264823394 pbc="F F F"
Dy       0.00000000       0.00000000       0.00000000       0.00000000       0.00000000       0.33480763
Dy       0.00000000       0.00000000       5.47090909       0.00000000       0.00000000      -0.33480763
2
Properties=species:S:1:pos:R:3:forces:R:3 energy=-0.7533638599415852 pbc="F F F"
Dy       0.00000000       0.00000000       0.00000000       0.00000000       0.00000000       0.31736761
Dy       0.00000000       0.00000000       5.52969697       0.00000000       0.00000000      -0.31736761
2
Properties=species:S:1:pos:R:3:forces:R:3 energy=-0.7355114490778164 pbc="F F F"
Dy       0.00000000       0.00000000       0.00000000       0.00000000       0.00000000       0.28729093
Dy       0.00000000       0.00000000       5.58848485       0.00000000       0.00000000      -0.28729093
2
Properties=species:S:1:pos:R:3:forces:R:3 energy=-0.7197875494475423 pbc="F F F"
Dy       0.00000000       0.00000000       0.00000000       0.00000000       0.00000000       0.24763772
Dy       0.00000000       0.00000000       5.64727273       0.00000000       0.00000000      -0.24763772
2
Properties=species:S:1:pos:R:3:forces:R:3 energy=-0.7061316064443801 pbc="F F F"
Dy       0.00000000       0.00000000       0.00000000       0.00000000       0.00000000       0.22161476
Dy       0.00000000       0.00000000       5.70606061       0.00000000       0.00000000      -0.22161476
2
Properties=species:S:1:pos:R:3:forces:R:3 energy=-0.6931079257823239 pbc="F F F"
Dy       0.00000000       0.00000000       0.00000000       0.00000000       0.00000000       0.22409850
Dy       0.00000000       0.00000000       5.76484848       0.00000000       0.00000000      -0.22409850
2
Properties=species:S:1:pos:R:3:forces:R:3 energy=-0.6800017316018684 pbc="F F F"
Dy       0.00000000       0.00000000       0.00000000       0.00000000       0.00000000       0.21483621
Dy       0.00000000       0.00000000       5.82363636       0.00000000       0.00000000      -0.21483621
2
Properties=species:S:1:pos:R:3:forces:R:3 energy=-0.6690436564104776 pbc="F F F"
Dy       0.00000000       0.00000000       0.00000000       0.00000000       0.00000000       0.15016544
Dy       0.00000000       0.00000000       5.88242424       0.00000000       0.00000000      -0.15016544
2
Properties=species:S:1:pos:R:3:forces:R:3 energy=-0.6626873496176244 pbc="F F F"
Dy       0.00000000       0.00000000       0.00000000       0.00000000       0.00000000       0.06863850
Dy       0.00000000       0.00000000       5.94121212       0.00000000       0.00000000      -0.06863850
2
Properties=species:S:1:pos:R:3:forces:R:3 energy=-0.6600183388687604 pbc="F F F"
Dy       0.00000000       0.00000000       0.00000000       0.00000000       0.00000000       0.03349671
Dy       0.00000000       0.00000000       6.00000000       0.00000000       0.00000000      -0.03349671
