2
Properties=species:S:1:pos:R:3:forces:R:3 energy=5142.023030975146 pbc="F F F"
Er       0.00000000       0.00000000       0.00000000       0.00000000       0.00000000 -228297.48437500
Er       0.00000000       0.00000000       0.18000000       0.00000000       0.00000000  228297.48437500
2
Properties=species:S:1:pos:R:3:forces:R:3 energy=-2813.301920196729 pbc="F F F"
Er       0.00000000       0.00000000       0.00000000       0.00000000       0.00000000  -74396.28125000
Er       0.00000000       0.00000000       0.23878788       0.00000000       0.00000000   74396.28125000
2
Properties=species:S:1:pos:R:3:forces:R:3 energy=-5524.431558868604 pbc="F F F"
Er       0.00000000       0.00000000       0.00000000       0.00000000       0.00000000  -25781.42578125
Er       0.00000000       0.00000000       0.29757576       0.00000000       0.00000000   25781.42578125
2
Properties=species:S:1:pos:R:3:forces:R:3 energy=-6370.059976837354 pbc="F F F"
Er       0.00000000       0.00000000       0.00000000       0.00000000       0.00000000   -5386.87353516
Er       0.00000000       0.00000000       0.35636364       0.00000000       0.00000000    5386.87353516
2
Properties=species:S:1:pos:R:3:forces:R:3 energy=-6324.406168230933 pbc="F F F"
Er       0.00000000       0.00000000       0.00000000       0.00000000       0.00000000    6129.50195312
Er       0.00000000       0.00000000       0.41515152       0.00000000       0.00000000   -6129.50195312
2
Properties=species:S:1:pos:R:3:forces:R:3 energy=-5712.366617449683 pbc="F F F"
Er       0.00000000       0.00000000       0.00000000       0.00000000       0.00000000   14292.92773438
Er       0.00000000       0.00000000       0.47393939       0.00000000       0.00000000  -14292.92773438
2
Properties=species:S:1:pos:R:3:forces:R:3 energy=-4689.75333617434 pbc="F F F"
Er       0.00000000       0.00000000       0.00000000       0.00000000       0.00000000   20062.78320312
Er       0.00000000       0.00000000       0.53272727       0.00000000       0.00000000  -20062.78320312
2
Properties=species:S:1:pos:R:3:forces:R:3 energy=-3416.2545568521227 pbc="F F F"
Er       0.00000000       0.00000000       0.00000000       0.00000000       0.00000000   22632.31250000
Er       0.00000000       0.00000000       0.59151515       0.00000000       0.00000000  -22632.31250000
2
Properties=species:S:1:pos:R:3:forces:R:3 energy=-2110.3163243922336 pbc="F F F"
Er       0.00000000       0.00000000       0.00000000       0.00000000       0.00000000   21082.32812500
Er       0.00000000       0.00000000       0.65030303       0.00000000       0.00000000  -21082.32812500
2
Properties=species:S:1:pos:R:3:forces:R:3 energy=-1011.9941807615185 pbc="F F F"
Er       0.00000000       0.00000000       0.00000000       0.00000000       0.00000000   15795.56347656
Er       0.00000000       0.00000000       0.70909091       0.00000000       0.00000000  -15795.56347656
2
Properties=species:S:1:pos:R:3:forces:R:3 energy=-290.85874364842937 pbc="F F F"
Er       0.00000000       0.00000000       0.00000000       0.00000000       0.00000000    9075.61425781
Er       0.00000000       0.00000000       0.76787879       0.00000000       0.00000000   -9075.61425781
2
Properties=species:S:1:pos:R:3:forces:R:3 energy=70.57469767840675 pbc="F F F"
Er       0.00000000       0.00000000       0.00000000       0.00000000       0.00000000    3974.53027344
Er       0.00000000       0.00000000       0.82666667       0.00000000       0.00000000   -3974.53027344
2
Properties=species:S:1:pos:R:3:forces:R:3 energy=189.7463898010212 pbc="F F F"
Er       0.00000000       0.00000000       0.00000000       0.00000000       0.00000000     453.16790771
Er       0.00000000       0.00000000       0.88545455       0.00000000       0.00000000    -453.16790771
2
Properties=species:S:1:pos:R:3:forces:R:3 energy=169.23151279846746 pbc="F F F"
Er       0.00000000       0.00000000       0.00000000       0.00000000       0.00000000    -495.24468994
Er       0.00000000       0.00000000       0.94424242       0.00000000       0.00000000     495.24468994
2
Properties=species:S:1:pos:R:3:forces:R:3 energy=141.44901202125945 pbc="F F F"
Er       0.00000000       0.00000000       0.00000000       0.00000000       0.00000000    -441.92184448
Er       0.00000000       0.00000000       1.00303030       0.00000000       0.00000000     441.92184448
2
Properties=species:S:1:pos:R:3:forces:R:3 energy=116.47949203529107 pbc="F F F"
Er       0.00000000       0.00000000       0.00000000       0.00000000       0.00000000    -375.02194214
Er       0.00000000       0.00000000       1.06181818       0.00000000       0.00000000     375.02194214
2
Properties=species:S:1:pos:R:3:forces:R:3 energy=95.42347781893382 pbc="F F F"
Er       0.00000000       0.00000000       0.00000000       0.00000000       0.00000000    -341.10824585
Er       0.00000000       0.00000000       1.12060606       0.00000000       0.00000000     341.10824585
2
Properties=species:S:1:pos:R:3:forces:R:3 energy=77.8865907227496 pbc="F F F"
Er       0.00000000       0.00000000       0.00000000       0.00000000       0.00000000    -259.21343994
Er       0.00000000       0.00000000       1.17939394       0.00000000       0.00000000     259.21343994
2
Properties=species:S:1:pos:R:3:forces:R:3 energy=64.38926235399212 pbc="F F F"
Er       0.00000000       0.00000000       0.00000000       0.00000000       0.00000000    -205.20550537
Er       0.00000000       0.00000000       1.23818182       0.00000000       0.00000000     205.20550537
2
Properties=species:S:1:pos:R:3:forces:R:3 energy=53.31712049725729 pbc="F F F"
Er       0.00000000       0.00000000       0.00000000       0.00000000       0.00000000    -173.47656250
Er       0.00000000       0.00000000       1.29696970       0.00000000       0.00000000     173.47656250
2
Properties=species:S:1:pos:R:3:forces:R:3 energy=43.892050935067765 pbc="F F F"
Er       0.00000000       0.00000000       0.00000000       0.00000000       0.00000000    -147.43821716
Er       0.00000000       0.00000000       1.35575758       0.00000000       0.00000000     147.43821716
2
Properties=species:S:1:pos:R:3:forces:R:3 energy=35.93794826952625 pbc="F F F"
Er       0.00000000       0.00000000       0.00000000       0.00000000       0.00000000    -123.87210846
Er       0.00000000       0.00000000       1.41454545       0.00000000       0.00000000     123.87210846
2
Properties=species:S:1:pos:R:3:forces:R:3 energy=29.215800812134137 pbc="F F F"
Er       0.00000000       0.00000000       0.00000000       0.00000000       0.00000000    -105.76156616
Er       0.00000000       0.00000000       1.47333333       0.00000000       0.00000000     105.76156616
2
Properties=species:S:1:pos:R:3:forces:R:3 energy=23.438600442095705 pbc="F F F"
Er       0.00000000       0.00000000       0.00000000       0.00000000       0.00000000     -90.81060028
Er       0.00000000       0.00000000       1.53212121       0.00000000       0.00000000      90.81060028
2
Properties=species:S:1:pos:R:3:forces:R:3 energy=18.576022324868173 pbc="F F F"
Er       0.00000000       0.00000000       0.00000000       0.00000000       0.00000000     -74.25559235
Er       0.00000000       0.00000000       1.59090909       0.00000000       0.00000000      74.25559235
2
Properties=species:S:1:pos:R:3:forces:R:3 energy=14.708856229232202 pbc="F F F"
Er       0.00000000       0.00000000       0.00000000       0.00000000       0.00000000     -57.74533463
Er       0.00000000       0.00000000       1.64969697       0.00000000       0.00000000      57.74533463
2
Properties=species:S:1:pos:R:3:forces:R:3 energy=11.698459996147063 pbc="F F F"
Er       0.00000000       0.00000000       0.00000000       0.00000000       0.00000000     -45.55010986
Er       0.00000000       0.00000000       1.70848485       0.00000000       0.00000000      45.55010986
2
Properties=species:S:1:pos:R:3:forces:R:3 energy=9.26157828927984 pbc="F F F"
Er       0.00000000       0.00000000       0.00000000       0.00000000       0.00000000     -37.95217896
Er       0.00000000       0.00000000       1.76727273       0.00000000       0.00000000      37.95217896
2
Properties=species:S:1:pos:R:3:forces:R:3 energy=7.189446294135206 pbc="F F F"
Er       0.00000000       0.00000000       0.00000000       0.00000000       0.00000000     -32.77241135
Er       0.00000000       0.00000000       1.82606061       0.00000000       0.00000000      32.77241135
2
Properties=species:S:1:pos:R:3:forces:R:3 energy=5.394149333115159 pbc="F F F"
Er       0.00000000       0.00000000       0.00000000       0.00000000       0.00000000     -28.35080910
Er       0.00000000       0.00000000       1.88484848       0.00000000       0.00000000      28.35080910
2
Properties=species:S:1:pos:R:3:forces:R:3 energy=3.8548234620548656 pbc="F F F"
Er       0.00000000       0.00000000       0.00000000       0.00000000       0.00000000     -24.01245308
Er       0.00000000       0.00000000       1.94363636       0.00000000       0.00000000      24.01245308
2
Properties=species:S:1:pos:R:3:forces:R:3 energy=2.5709411643449878 pbc="F F F"
Er       0.00000000       0.00000000       0.00000000       0.00000000       0.00000000     -19.67922592
Er       0.00000000       0.00000000       2.00242424       0.00000000       0.00000000      19.67922592
2
Properties=species:S:1:pos:R:3:forces:R:3 energy=1.5369846094395883 pbc="F F F"
Er       0.00000000       0.00000000       0.00000000       0.00000000       0.00000000     -15.55396938
Er       0.00000000       0.00000000       2.06121212       0.00000000       0.00000000      15.55396938
2
Properties=species:S:1:pos:R:3:forces:R:3 energy=0.7328474699745963 pbc="F F F"
Er       0.00000000       0.00000000       0.00000000       0.00000000       0.00000000     -11.90235996
Er       0.00000000       0.00000000       2.12000000       0.00000000       0.00000000      11.90235996
2
Properties=species:S:1:pos:R:3:forces:R:3 energy=0.12426141834375029 pbc="F F F"
Er       0.00000000       0.00000000       0.00000000       0.00000000       0.00000000      -8.92434978
Er       0.00000000       0.00000000       2.17878788       0.00000000       0.00000000       8.92434978
2
Properties=species:S:1:pos:R:3:forces:R:3 energy=-0.33112231306851025 pbc="F F F"
Er       0.00000000       0.00000000       0.00000000       0.00000000       0.00000000      -6.69159222
Er       0.00000000       0.00000000       2.23757576       0.00000000       0.00000000       6.69159222
2
Properties=species:S:1:pos:R:3:forces:R:3 energy=-0.6763365326201689 pbc="F F F"
Er       0.00000000       0.00000000       0.00000000       0.00000000       0.00000000      -5.16231728
Er       0.00000000       0.00000000       2.29636364       0.00000000       0.00000000       5.16231728
2
Properties=species:S:1:pos:R:3:forces:R:3 energy=-0.9495864047276943 pbc="F F F"
Er       0.00000000       0.00000000       0.00000000       0.00000000       0.00000000      -4.21779299
Er       0.00000000       0.00000000       2.35515152       0.00000000       0.00000000       4.21779299
2
Properties=species:S:1:pos:R:3:forces:R:3 energy=-1.1801841239886246 pbc="F F F"
Er       0.00000000       0.00000000       0.00000000       0.00000000       0.00000000      -3.67750025
Er       0.00000000       0.00000000       2.41393939       0.00000000       0.00000000       3.67750025
2
Properties=species:S:1:pos:R:3:forces:R:3 energy=-1.385926080604415 pbc="F F F"
Er       0.00000000       0.00000000       0.00000000       0.00000000       0.00000000      -3.34078193
Er       0.00000000       0.00000000       2.47272727       0.00000000       0.00000000       3.34078193
2
Properties=species:S:1:pos:R:3:forces:R:3 energy=-1.5738979358576732 pbc="F F F"
Er       0.00000000       0.00000000       0.00000000       0.00000000       0.00000000      -3.05370903
Er       0.00000000       0.00000000       2.53151515       0.00000000       0.00000000       3.05370903
2
Properties=species:S:1:pos:R:3:forces:R:3 energy=-1.7444194987537625 pbc="F F F"
Er       0.00000000       0.00000000       0.00000000       0.00000000       0.00000000      -2.74070644
Er       0.00000000       0.00000000       2.59030303       0.00000000       0.00000000       2.74070644
2
Properties=species:S:1:pos:R:3:forces:R:3 energy=-1.8953359224957618 pbc="F F F"
Er       0.00000000       0.00000000       0.00000000       0.00000000       0.00000000      -2.38769650
Er       0.00000000       0.00000000       2.64909091       0.00000000       0.00000000       2.38769650
2
Properties=species:S:1:pos:R:3:forces:R:3 energy=-2.024665688257853 pbc="F F F"
Er       0.00000000       0.00000000       0.00000000       0.00000000       0.00000000      -2.00990701
Er       0.00000000       0.00000000       2.70787879       0.00000000       0.00000000       2.00990701
2
Properties=species:S:1:pos:R:3:forces:R:3 energy=-2.131591546491894 pbc="F F F"
Er       0.00000000       0.00000000       0.00000000       0.00000000       0.00000000      -1.62889445
Er       0.00000000       0.00000000       2.76666667       0.00000000       0.00000000       1.62889445
2
Properties=species:S:1:pos:R:3:forces:R:3 energy=-2.216468566810378 pbc="F F F"
Er       0.00000000       0.00000000       0.00000000       0.00000000       0.00000000      -1.26209474
Er       0.00000000       0.00000000       2.82545455       0.00000000       0.00000000       1.26209474
2
Properties=species:S:1:pos:R:3:forces:R:3 energy=-2.2804707993163005 pbc="F F F"
Er       0.00000000       0.00000000       0.00000000       0.00000000       0.00000000      -0.91994494
Er       0.00000000       0.00000000       2.88424242       0.00000000       0.00000000       0.91994494
2
Properties=species:S:1:pos:R:3:forces:R:3 energy=-2.3251995862197528 pbc="F F F"
Er       0.00000000       0.00000000       0.00000000       0.00000000       0.00000000      -0.60672081
Er       0.00000000       0.00000000       2.94303030       0.00000000       0.00000000       0.60672081
2
Properties=species:S:1:pos:R:3:forces:R:3 energy=-2.352387037153772 pbc="F F F"
Er       0.00000000       0.00000000       0.00000000       0.00000000       0.00000000      -0.32308272
Er       0.00000000       0.00000000       3.00181818       0.00000000       0.00000000       0.32308272
2
Properties=species:S:1:pos:R:3:forces:R:3 energy=-2.363759438335187 pbc="F F F"
Er       0.00000000       0.00000000       0.00000000       0.00000000       0.00000000      -0.06866701
Er       0.00000000       0.00000000       3.06060606       0.00000000       0.00000000       0.06866701
2
Properties=species:S:1:pos:R:3:forces:R:3 energy=-2.3610330220507354 pbc="F F F"
Er       0.00000000       0.00000000       0.00000000       0.00000000       0.00000000       0.15650891
Er       0.00000000       0.00000000       3.11939394       0.00000000       0.00000000      -0.15650891
2
Properties=species:S:1:pos:R:3:forces:R:3 energy=-2.345938488092748 pbc="F F F"
Er       0.00000000       0.00000000       0.00000000       0.00000000       0.00000000       0.35204667
Er       0.00000000       0.00000000       3.17818182       0.00000000       0.00000000      -0.35204667
2
Properties=species:S:1:pos:R:3:forces:R:3 energy=-2.3202251732524948 pbc="F F F"
Er       0.00000000       0.00000000       0.00000000       0.00000000       0.00000000       0.51785767
Er       0.00000000       0.00000000       3.23696970       0.00000000       0.00000000      -0.51785767
2
Properties=species:S:1:pos:R:3:forces:R:3 energy=-2.285617322677575 pbc="F F F"
Er       0.00000000       0.00000000       0.00000000       0.00000000       0.00000000       0.65480793
Er       0.00000000       0.00000000       3.29575758       0.00000000       0.00000000      -0.65480793
2
Properties=species:S:1:pos:R:3:forces:R:3 energy=-2.2437614744018965 pbc="F F F"
Er       0.00000000       0.00000000       0.00000000       0.00000000       0.00000000       0.76487839
Er       0.00000000       0.00000000       3.35454545       0.00000000       0.00000000      -0.76487839
2
Properties=species:S:1:pos:R:3:forces:R:3 energy=-2.19615763573172 pbc="F F F"
Er       0.00000000       0.00000000       0.00000000       0.00000000       0.00000000       0.85091156
Er       0.00000000       0.00000000       3.41333333       0.00000000       0.00000000      -0.85091156
2
Properties=species:S:1:pos:R:3:forces:R:3 energy=-2.1441233707392358 pbc="F F F"
Er       0.00000000       0.00000000       0.00000000       0.00000000       0.00000000       0.91614932
Er       0.00000000       0.00000000       3.47212121       0.00000000       0.00000000      -0.91614932
2
Properties=species:S:1:pos:R:3:forces:R:3 energy=-2.0887871188787708 pbc="F F F"
Er       0.00000000       0.00000000       0.00000000       0.00000000       0.00000000       0.96372914
Er       0.00000000       0.00000000       3.53090909       0.00000000       0.00000000      -0.96372914
2
Properties=species:S:1:pos:R:3:forces:R:3 energy=-2.031105841289316 pbc="F F F"
Er       0.00000000       0.00000000       0.00000000       0.00000000       0.00000000       0.99628377
Er       0.00000000       0.00000000       3.58969697       0.00000000       0.00000000      -0.99628377
2
Properties=species:S:1:pos:R:3:forces:R:3 energy=-1.9719029490276045 pbc="F F F"
Er       0.00000000       0.00000000       0.00000000       0.00000000       0.00000000       1.01576126
Er       0.00000000       0.00000000       3.64848485       0.00000000       0.00000000      -1.01576126
2
Properties=species:S:1:pos:R:3:forces:R:3 energy=-1.9119075510987371 pbc="F F F"
Er       0.00000000       0.00000000       0.00000000       0.00000000       0.00000000       1.02348137
Er       0.00000000       0.00000000       3.70727273       0.00000000       0.00000000      -1.02348137
2
Properties=species:S:1:pos:R:3:forces:R:3 energy=-1.8517769798442172 pbc="F F F"
Er       0.00000000       0.00000000       0.00000000       0.00000000       0.00000000       1.02045691
Er       0.00000000       0.00000000       3.76606061       0.00000000       0.00000000      -1.02045691
2
Properties=species:S:1:pos:R:3:forces:R:3 energy=-1.792116045826058 pbc="F F F"
Er       0.00000000       0.00000000       0.00000000       0.00000000       0.00000000       1.00775826
Er       0.00000000       0.00000000       3.82484848       0.00000000       0.00000000      -1.00775826
2
Properties=species:S:1:pos:R:3:forces:R:3 energy=-1.7334506683991684 pbc="F F F"
Er       0.00000000       0.00000000       0.00000000       0.00000000       0.00000000       0.98680162
Er       0.00000000       0.00000000       3.88363636       0.00000000       0.00000000      -0.98680162
2
Properties=species:S:1:pos:R:3:forces:R:3 energy=-1.6762185520441886 pbc="F F F"
Er       0.00000000       0.00000000       0.00000000       0.00000000       0.00000000       0.95938009
Er       0.00000000       0.00000000       3.94242424       0.00000000       0.00000000      -0.95938009
2
Properties=species:S:1:pos:R:3:forces:R:3 energy=-1.6207394980867011 pbc="F F F"
Er       0.00000000       0.00000000       0.00000000       0.00000000       0.00000000       0.92748904
Er       0.00000000       0.00000000       4.00121212       0.00000000       0.00000000      -0.92748904
2
Properties=species:S:1:pos:R:3:forces:R:3 energy=-1.567218885941253 pbc="F F F"
Er       0.00000000       0.00000000       0.00000000       0.00000000       0.00000000       0.89303482
Er       0.00000000       0.00000000       4.06000000       0.00000000       0.00000000      -0.89303482
2
Properties=species:S:1:pos:R:3:forces:R:3 energy=-1.5157588050927455 pbc="F F F"
Er       0.00000000       0.00000000       0.00000000       0.00000000       0.00000000       0.85762060
Er       0.00000000       0.00000000       4.11878788       0.00000000       0.00000000      -0.85762060
2
Properties=species:S:1:pos:R:3:forces:R:3 energy=-1.466378727820729 pbc="F F F"
Er       0.00000000       0.00000000       0.00000000       0.00000000       0.00000000       0.82240999
Er       0.00000000       0.00000000       4.17757576       0.00000000       0.00000000      -0.82240999
2
Properties=species:S:1:pos:R:3:forces:R:3 energy=-1.4190432924674645 pbc="F F F"
Er       0.00000000       0.00000000       0.00000000       0.00000000       0.00000000       0.78816688
Er       0.00000000       0.00000000       4.23636364       0.00000000       0.00000000      -0.78816688
2
Properties=species:S:1:pos:R:3:forces:R:3 energy=-1.3736807428639388 pbc="F F F"
Er       0.00000000       0.00000000       0.00000000       0.00000000       0.00000000       0.75532061
Er       0.00000000       0.00000000       4.29515152       0.00000000       0.00000000      -0.75532061
2
Properties=species:S:1:pos:R:3:forces:R:3 energy=-1.3302049400348246 pbc="F F F"
Er       0.00000000       0.00000000       0.00000000       0.00000000       0.00000000       0.72407794
Er       0.00000000       0.00000000       4.35393939       0.00000000       0.00000000      -0.72407794
2
Properties=species:S:1:pos:R:3:forces:R:3 energy=-1.2885159063918223 pbc="F F F"
Er       0.00000000       0.00000000       0.00000000       0.00000000       0.00000000       0.69448137
Er       0.00000000       0.00000000       4.41272727       0.00000000       0.00000000      -0.69448137
2
Properties=species:S:1:pos:R:3:forces:R:3 energy=-1.248519076618029 pbc="F F F"
Er       0.00000000       0.00000000       0.00000000       0.00000000       0.00000000       0.66648108
Er       0.00000000       0.00000000       4.47151515       0.00000000       0.00000000      -0.66648108
2
Properties=species:S:1:pos:R:3:forces:R:3 energy=-1.2101240687291277 pbc="F F F"
Er       0.00000000       0.00000000       0.00000000       0.00000000       0.00000000       0.63996112
Er       0.00000000       0.00000000       4.53030303       0.00000000       0.00000000      -0.63996112
2
Properties=species:S:1:pos:R:3:forces:R:3 energy=-1.173250311084623 pbc="F F F"
Er       0.00000000       0.00000000       0.00000000       0.00000000       0.00000000       0.61472636
Er       0.00000000       0.00000000       4.58909091       0.00000000       0.00000000      -0.61472636
2
Properties=species:S:1:pos:R:3:forces:R:3 energy=-1.1378275647424605 pbc="F F F"
Er       0.00000000       0.00000000       0.00000000       0.00000000       0.00000000       0.59053046
Er       0.00000000       0.00000000       4.64787879       0.00000000       0.00000000      -0.59053046
2
Properties=species:S:1:pos:R:3:forces:R:3 energy=-1.103803514839692 pbc="F F F"
Er       0.00000000       0.00000000       0.00000000       0.00000000       0.00000000       0.56704926
Er       0.00000000       0.00000000       4.70666667       0.00000000       0.00000000      -0.56704926
2
Properties=species:S:1:pos:R:3:forces:R:3 energy=-1.0711493924360187 pbc="F F F"
Er       0.00000000       0.00000000       0.00000000       0.00000000       0.00000000       0.54390407
Er       0.00000000       0.00000000       4.76545455       0.00000000       0.00000000      -0.54390407
2
Properties=species:S:1:pos:R:3:forces:R:3 energy=-1.0398539772033981 pbc="F F F"
Er       0.00000000       0.00000000       0.00000000       0.00000000       0.00000000       0.52072650
Er       0.00000000       0.00000000       4.82424242       0.00000000       0.00000000      -0.52072650
2
Properties=species:S:1:pos:R:3:forces:R:3 energy=-1.0099322490190283 pbc="F F F"
Er       0.00000000       0.00000000       0.00000000       0.00000000       0.00000000       0.49725863
Er       0.00000000       0.00000000       4.88303030       0.00000000       0.00000000      -0.49725863
2
Properties=species:S:1:pos:R:3:forces:R:3 energy=-0.9813943682074869 pbc="F F F"
Er       0.00000000       0.00000000       0.00000000       0.00000000       0.00000000       0.47352526
Er       0.00000000       0.00000000       4.94181818       0.00000000       0.00000000      -0.47352526
2
Properties=species:S:1:pos:R:3:forces:R:3 energy=-0.9542516233339201 pbc="F F F"
Er       0.00000000       0.00000000       0.00000000       0.00000000       0.00000000       0.44994715
Er       0.00000000       0.00000000       5.00060606       0.00000000       0.00000000      -0.44994715
2
Properties=species:S:1:pos:R:3:forces:R:3 energy=-0.9284721207783493 pbc="F F F"
Er       0.00000000       0.00000000       0.00000000       0.00000000       0.00000000       0.42731774
Er       0.00000000       0.00000000       5.05939394       0.00000000       0.00000000      -0.42731774
2
Properties=species:S:1:pos:R:3:forces:R:3 energy=-0.9039722779424976 pbc="F F F"
Er       0.00000000       0.00000000       0.00000000       0.00000000       0.00000000       0.40654469
Er       0.00000000       0.00000000       5.11818182       0.00000000       0.00000000      -0.40654469
2
Properties=species:S:1:pos:R:3:forces:R:3 energy=-0.8806281202058729 pbc="F F F"
Er       0.00000000       0.00000000       0.00000000       0.00000000       0.00000000       0.38804838
Er       0.00000000       0.00000000       5.17696970       0.00000000       0.00000000      -0.38804838
2
Properties=species:S:1:pos:R:3:forces:R:3 energy=-0.8583233375245923 pbc="F F F"
Er       0.00000000       0.00000000       0.00000000       0.00000000       0.00000000       0.37082744
Er       0.00000000       0.00000000       5.23575758       0.00000000       0.00000000      -0.37082744
2
Properties=species:S:1:pos:R:3:forces:R:3 energy=-0.8370653588493846 pbc="F F F"
Er       0.00000000       0.00000000       0.00000000       0.00000000       0.00000000       0.35173702
Er       0.00000000       0.00000000       5.29454545       0.00000000       0.00000000      -0.35173702
2
Properties=species:S:1:pos:R:3:forces:R:3 energy=-0.8170780209251294 pbc="F F F"
Er       0.00000000       0.00000000       0.00000000       0.00000000       0.00000000       0.32718435
Er       0.00000000       0.00000000       5.35333333       0.00000000       0.00000000      -0.32718435
2
Properties=species:S:1:pos:R:3:forces:R:3 energy=-0.7986448385853668 pbc="F F F"
Er       0.00000000       0.00000000       0.00000000       0.00000000       0.00000000       0.30051911
Er       0.00000000       0.00000000       5.41212121       0.00000000       0.00000000      -0.30051911
2
Properties=species:S:1:pos:R:3:forces:R:3 energy=-0.781516988661658 pbc="F F F"
Er       0.00000000       0.00000000       0.00000000       0.00000000       0.00000000       0.28486553
Er       0.00000000       0.00000000       5.47090909       0.00000000       0.00000000      -0.28486553
2
Properties=species:S:1:pos:R:3:forces:R:3 energy=-0.7649662820897026 pbc="F F F"
Er       0.00000000       0.00000000       0.00000000       0.00000000       0.00000000       0.27758706
Er       0.00000000       0.00000000       5.52969697       0.00000000       0.00000000      -0.27758706
2
Properties=species:S:1:pos:R:3:forces:R:3 energy=-0.7491800306384218 pbc="F F F"
Er       0.00000000       0.00000000       0.00000000       0.00000000       0.00000000       0.25619677
Er       0.00000000       0.00000000       5.58848485       0.00000000       0.00000000      -0.25619677
2
Properties=species:S:1:pos:R:3:forces:R:3 energy=-0.7350928020046887 pbc="F F F"
Er       0.00000000       0.00000000       0.00000000       0.00000000       0.00000000       0.22301032
Er       0.00000000       0.00000000       5.64727273       0.00000000       0.00000000      -0.22301032
2
Properties=species:S:1:pos:R:3:forces:R:3 energy=-0.7226431921099014 pbc="F F F"
Er       0.00000000       0.00000000       0.00000000       0.00000000       0.00000000       0.20604028
Er       0.00000000       0.00000000       5.70606061       0.00000000       0.00000000      -0.20604028
2
Properties=species:S:1:pos:R:3:forces:R:3 energy=-0.7101709272859003 pbc="F F F"
Er       0.00000000       0.00000000       0.00000000       0.00000000       0.00000000       0.22073463
Er       0.00000000       0.00000000       5.76484848       0.00000000       0.00000000      -0.22073463
2
Properties=species:S:1:pos:R:3:forces:R:3 energy=-0.6970786199772142 pbc="F F F"
Er       0.00000000       0.00000000       0.00000000       0.00000000       0.00000000       0.21586505
Er       0.00000000       0.00000000       5.82363636       0.00000000       0.00000000      -0.21586505
2
Properties=species:S:1:pos:R:3:forces:R:3 energy=-0.6861271381076328 pbc="F F F"
Er       0.00000000       0.00000000       0.00000000       0.00000000       0.00000000       0.14885944
Er       0.00000000       0.00000000       5.88242424       0.00000000       0.00000000      -0.14885944
2
Properties=species:S:1:pos:R:3:forces:R:3 energy=-0.6798710976030802 pbc="F F F"
Er       0.00000000       0.00000000       0.00000000       0.00000000       0.00000000       0.06699754
Er       0.00000000       0.00000000       5.94121212       0.00000000       0.00000000      -0.06699754
2
Properties=species:S:1:pos:R:3:forces:R:3 energy=-0.6772892298407053 pbc="F F F"
Er       0.00000000       0.00000000       0.00000000       0.00000000       0.00000000       0.03216203
Er       0.00000000       0.00000000       6.00000000       0.00000000       0.00000000      -0.03216203
