2
Properties=species:S:1:pos:R:3:forces:R:3 energy=11972.296532627633 pbc="F F F"
Eu       0.00000000       0.00000000       0.00000000       0.00000000       0.00000000 -204405.32812500
Eu       0.00000000       0.00000000       0.18000000       0.00000000       0.00000000  204405.32812500
2
Properties=species:S:1:pos:R:3:forces:R:3 energy=4782.4200677838835 pbc="F F F"
Eu       0.00000000       0.00000000       0.00000000       0.00000000       0.00000000  -68675.89062500
Eu       0.00000000       0.00000000       0.23878788       0.00000000       0.00000000   68675.89062500
2
Properties=species:S:1:pos:R:3:forces:R:3 energy=2178.101464268259 pbc="F F F"
Eu       0.00000000       0.00000000       0.00000000       0.00000000       0.00000000  -27164.19921875
Eu       0.00000000       0.00000000       0.29757576       0.00000000       0.00000000   27164.19921875
2
Properties=species:S:1:pos:R:3:forces:R:3 energy=1098.8568353651767 pbc="F F F"
Eu       0.00000000       0.00000000       0.00000000       0.00000000       0.00000000  -11882.93261719
Eu       0.00000000       0.00000000       0.35636364       0.00000000       0.00000000   11882.93261719
2
Properties=species:S:1:pos:R:3:forces:R:3 energy=611.3108758925205 pbc="F F F"
Eu       0.00000000       0.00000000       0.00000000       0.00000000       0.00000000   -5574.71240234
Eu       0.00000000       0.00000000       0.41515152       0.00000000       0.00000000    5574.71240234
2
Properties=species:S:1:pos:R:3:forces:R:3 energy=376.8961114913914 pbc="F F F"
Eu       0.00000000       0.00000000       0.00000000       0.00000000       0.00000000   -2759.07006836
Eu       0.00000000       0.00000000       0.47393939       0.00000000       0.00000000    2759.07006836
2
Properties=species:S:1:pos:R:3:forces:R:3 energy=258.5671320055396 pbc="F F F"
Eu       0.00000000       0.00000000       0.00000000       0.00000000       0.00000000   -1425.10668945
Eu       0.00000000       0.00000000       0.53272727       0.00000000       0.00000000    1425.10668945
2
Properties=species:S:1:pos:R:3:forces:R:3 energy=196.48374272964867 pbc="F F F"
Eu       0.00000000       0.00000000       0.00000000       0.00000000       0.00000000    -760.92993164
Eu       0.00000000       0.00000000       0.59151515       0.00000000       0.00000000     760.92993164
2
Properties=species:S:1:pos:R:3:forces:R:3 energy=162.9575128839215 pbc="F F F"
Eu       0.00000000       0.00000000       0.00000000       0.00000000       0.00000000    -416.30844116
Eu       0.00000000       0.00000000       0.65030303       0.00000000       0.00000000     416.30844116
2
Properties=species:S:1:pos:R:3:forces:R:3 energy=144.2939539429675 pbc="F F F"
Eu       0.00000000       0.00000000       0.00000000       0.00000000       0.00000000    -240.01741028
Eu       0.00000000       0.00000000       0.70909091       0.00000000       0.00000000     240.01741028
2
Properties=species:S:1:pos:R:3:forces:R:3 energy=132.77080639163793 pbc="F F F"
Eu       0.00000000       0.00000000       0.00000000       0.00000000       0.00000000    -163.60603333
Eu       0.00000000       0.00000000       0.76787879       0.00000000       0.00000000     163.60603333
2
Properties=species:S:1:pos:R:3:forces:R:3 energy=124.20387375776477 pbc="F F F"
Eu       0.00000000       0.00000000       0.00000000       0.00000000       0.00000000    -132.61874390
Eu       0.00000000       0.00000000       0.82666667       0.00000000       0.00000000     132.61874390
2
Properties=species:S:1:pos:R:3:forces:R:3 energy=116.72010917268372 pbc="F F F"
Eu       0.00000000       0.00000000       0.00000000       0.00000000       0.00000000    -124.95288849
Eu       0.00000000       0.00000000       0.88545455       0.00000000       0.00000000     124.95288849
2
Properties=species:S:1:pos:R:3:forces:R:3 energy=109.31764344107023 pbc="F F F"
Eu       0.00000000       0.00000000       0.00000000       0.00000000       0.00000000    -127.72895050
Eu       0.00000000       0.00000000       0.94424242       0.00000000       0.00000000     127.72895050
2
Properties=species:S:1:pos:R:3:forces:R:3 energy=101.36798993912701 pbc="F F F"
Eu       0.00000000       0.00000000       0.00000000       0.00000000       0.00000000    -147.68312073
Eu       0.00000000       0.00000000       1.00303030       0.00000000       0.00000000     147.68312073
2
Properties=species:S:1:pos:R:3:forces:R:3 energy=91.96750029989269 pbc="F F F"
Eu       0.00000000       0.00000000       0.00000000       0.00000000       0.00000000    -166.24133301
Eu       0.00000000       0.00000000       1.06181818       0.00000000       0.00000000     166.24133301
2
Properties=species:S:1:pos:R:3:forces:R:3 energy=82.2015016813082 pbc="F F F"
Eu       0.00000000       0.00000000       0.00000000       0.00000000       0.00000000    -170.27189636
Eu       0.00000000       0.00000000       1.12060606       0.00000000       0.00000000     170.27189636
2
Properties=species:S:1:pos:R:3:forces:R:3 energy=69.77776540048222 pbc="F F F"
Eu       0.00000000       0.00000000       0.00000000       0.00000000       0.00000000    -227.27891541
Eu       0.00000000       0.00000000       1.17939394       0.00000000       0.00000000     227.27891541
2
Properties=species:S:1:pos:R:3:forces:R:3 energy=56.65292599157039 pbc="F F F"
Eu       0.00000000       0.00000000       0.00000000       0.00000000       0.00000000    -218.21597290
Eu       0.00000000       0.00000000       1.23818182       0.00000000       0.00000000     218.21597290
2
Properties=species:S:1:pos:R:3:forces:R:3 energy=44.37263777362247 pbc="F F F"
Eu       0.00000000       0.00000000       0.00000000       0.00000000       0.00000000    -198.15104675
Eu       0.00000000       0.00000000       1.29696970       0.00000000       0.00000000     198.15104675
2
Properties=species:S:1:pos:R:3:forces:R:3 energy=33.44595686328964 pbc="F F F"
Eu       0.00000000       0.00000000       0.00000000       0.00000000       0.00000000    -173.16369629
Eu       0.00000000       0.00000000       1.35575758       0.00000000       0.00000000     173.16369629
2
Properties=species:S:1:pos:R:3:forces:R:3 energy=24.040865381019245 pbc="F F F"
Eu       0.00000000       0.00000000       0.00000000       0.00000000       0.00000000    -146.71282959
Eu       0.00000000       0.00000000       1.41454545       0.00000000       0.00000000     146.71282959
2
Properties=species:S:1:pos:R:3:forces:R:3 energy=16.18961663020603 pbc="F F F"
Eu       0.00000000       0.00000000       0.00000000       0.00000000       0.00000000    -120.54216003
Eu       0.00000000       0.00000000       1.47333333       0.00000000       0.00000000     120.54216003
2
Properties=species:S:1:pos:R:3:forces:R:3 energy=9.850433982255886 pbc="F F F"
Eu       0.00000000       0.00000000       0.00000000       0.00000000       0.00000000     -95.29486847
Eu       0.00000000       0.00000000       1.53212121       0.00000000       0.00000000      95.29486847
2
Properties=species:S:1:pos:R:3:forces:R:3 energy=4.9380380167966536 pbc="F F F"
Eu       0.00000000       0.00000000       0.00000000       0.00000000       0.00000000     -72.56817627
Eu       0.00000000       0.00000000       1.59090909       0.00000000       0.00000000      72.56817627
2
Properties=species:S:1:pos:R:3:forces:R:3 energy=1.1982268954753983 pbc="F F F"
Eu       0.00000000       0.00000000       0.00000000       0.00000000       0.00000000     -55.80987167
Eu       0.00000000       0.00000000       1.64969697       0.00000000       0.00000000      55.80987167
2
Properties=species:S:1:pos:R:3:forces:R:3 energy=-1.7474440153248743 pbc="F F F"
Eu       0.00000000       0.00000000       0.00000000       0.00000000       0.00000000     -45.26932144
Eu       0.00000000       0.00000000       1.70848485       0.00000000       0.00000000      45.26932144
2
Properties=species:S:1:pos:R:3:forces:R:3 energy=-4.1994573958510415 pbc="F F F"
Eu       0.00000000       0.00000000       0.00000000       0.00000000       0.00000000     -38.57394409
Eu       0.00000000       0.00000000       1.76727273       0.00000000       0.00000000      38.57394409
2
Properties=species:S:1:pos:R:3:forces:R:3 energy=-6.313629260932695 pbc="F F F"
Eu       0.00000000       0.00000000       0.00000000       0.00000000       0.00000000     -33.49941254
Eu       0.00000000       0.00000000       1.82606061       0.00000000       0.00000000      33.49941254
2
Properties=species:S:1:pos:R:3:forces:R:3 energy=-8.149996193782826 pbc="F F F"
Eu       0.00000000       0.00000000       0.00000000       0.00000000       0.00000000     -29.05816078
Eu       0.00000000       0.00000000       1.88484848       0.00000000       0.00000000      29.05816078
2
Properties=species:S:1:pos:R:3:forces:R:3 energy=-9.739914923561496 pbc="F F F"
Eu       0.00000000       0.00000000       0.00000000       0.00000000       0.00000000     -25.11340141
Eu       0.00000000       0.00000000       1.94363636       0.00000000       0.00000000      25.11340141
2
Properties=species:S:1:pos:R:3:forces:R:3 energy=-11.111323295018318 pbc="F F F"
Eu       0.00000000       0.00000000       0.00000000       0.00000000       0.00000000     -21.60280418
Eu       0.00000000       0.00000000       2.00242424       0.00000000       0.00000000      21.60280418
2
Properties=species:S:1:pos:R:3:forces:R:3 energy=-12.285250596770679 pbc="F F F"
Eu       0.00000000       0.00000000       0.00000000       0.00000000       0.00000000     -18.36887932
Eu       0.00000000       0.00000000       2.06121212       0.00000000       0.00000000      18.36887932
2
Properties=species:S:1:pos:R:3:forces:R:3 energy=-13.274438839681864 pbc="F F F"
Eu       0.00000000       0.00000000       0.00000000       0.00000000       0.00000000     -15.31269932
Eu       0.00000000       0.00000000       2.12000000       0.00000000       0.00000000      15.31269932
2
Properties=species:S:1:pos:R:3:forces:R:3 energy=-14.089761672587715 pbc="F F F"
Eu       0.00000000       0.00000000       0.00000000       0.00000000       0.00000000     -12.46942425
Eu       0.00000000       0.00000000       2.17878788       0.00000000       0.00000000      12.46942425
2
Properties=species:S:1:pos:R:3:forces:R:3 energy=-14.747061549071486 pbc="F F F"
Eu       0.00000000       0.00000000       0.00000000       0.00000000       0.00000000      -9.95762920
Eu       0.00000000       0.00000000       2.23757576       0.00000000       0.00000000       9.95762920
2
Properties=species:S:1:pos:R:3:forces:R:3 energy=-15.268893785544455 pbc="F F F"
Eu       0.00000000       0.00000000       0.00000000       0.00000000       0.00000000      -7.86881018
Eu       0.00000000       0.00000000       2.29636364       0.00000000       0.00000000       7.86881018
2
Properties=species:S:1:pos:R:3:forces:R:3 energy=-15.68058898254549 pbc="F F F"
Eu       0.00000000       0.00000000       0.00000000       0.00000000       0.00000000      -6.20400047
Eu       0.00000000       0.00000000       2.35515152       0.00000000       0.00000000       6.20400047
2
Properties=species:S:1:pos:R:3:forces:R:3 energy=-16.00553821414401 pbc="F F F"
Eu       0.00000000       0.00000000       0.00000000       0.00000000       0.00000000      -4.90674639
Eu       0.00000000       0.00000000       2.41393939       0.00000000       0.00000000       4.90674639
2
Properties=species:S:1:pos:R:3:forces:R:3 energy=-16.263464985917782 pbc="F F F"
Eu       0.00000000       0.00000000       0.00000000       0.00000000       0.00000000      -3.91376233
Eu       0.00000000       0.00000000       2.47272727       0.00000000       0.00000000       3.91376233
2
Properties=species:S:1:pos:R:3:forces:R:3 energy=-16.470497026623697 pbc="F F F"
Eu       0.00000000       0.00000000       0.00000000       0.00000000       0.00000000      -3.16543603
Eu       0.00000000       0.00000000       2.53151515       0.00000000       0.00000000       3.16543603
2
Properties=species:S:1:pos:R:3:forces:R:3 energy=-16.639258933990643 pbc="F F F"
Eu       0.00000000       0.00000000       0.00000000       0.00000000       0.00000000      -2.60189557
Eu       0.00000000       0.00000000       2.59030303       0.00000000       0.00000000       2.60189557
2
Properties=species:S:1:pos:R:3:forces:R:3 energy=-16.778968058506155 pbc="F F F"
Eu       0.00000000       0.00000000       0.00000000       0.00000000       0.00000000      -2.16897058
Eu       0.00000000       0.00000000       2.64909091       0.00000000       0.00000000       2.16897058
2
Properties=species:S:1:pos:R:3:forces:R:3 energy=-16.896022410290428 pbc="F F F"
Eu       0.00000000       0.00000000       0.00000000       0.00000000       0.00000000      -1.82552838
Eu       0.00000000       0.00000000       2.70787879       0.00000000       0.00000000       1.82552838
2
Properties=species:S:1:pos:R:3:forces:R:3 energy=-16.994808237348767 pbc="F F F"
Eu       0.00000000       0.00000000       0.00000000       0.00000000       0.00000000      -1.54381537
Eu       0.00000000       0.00000000       2.76666667       0.00000000       0.00000000       1.54381537
2
Properties=species:S:1:pos:R:3:forces:R:3 energy=-17.078391546997096 pbc="F F F"
Eu       0.00000000       0.00000000       0.00000000       0.00000000       0.00000000      -1.30597126
Eu       0.00000000       0.00000000       2.82545455       0.00000000       0.00000000       1.30597126
2
Properties=species:S:1:pos:R:3:forces:R:3 energy=-17.14900010087401 pbc="F F F"
Eu       0.00000000       0.00000000       0.00000000       0.00000000       0.00000000      -1.10093021
Eu       0.00000000       0.00000000       2.88424242       0.00000000       0.00000000       1.10093021
2
Properties=species:S:1:pos:R:3:forces:R:3 energy=-17.2083534366197 pbc="F F F"
Eu       0.00000000       0.00000000       0.00000000       0.00000000       0.00000000      -0.92241669
Eu       0.00000000       0.00000000       2.94303030       0.00000000       0.00000000       0.92241669
2
Properties=species:S:1:pos:R:3:forces:R:3 energy=-17.25790802188436 pbc="F F F"
Eu       0.00000000       0.00000000       0.00000000       0.00000000       0.00000000      -0.76717418
Eu       0.00000000       0.00000000       3.00181818       0.00000000       0.00000000       0.76717418
2
Properties=species:S:1:pos:R:3:forces:R:3 energy=-17.29897196387163 pbc="F F F"
Eu       0.00000000       0.00000000       0.00000000       0.00000000       0.00000000      -0.63316184
Eu       0.00000000       0.00000000       3.06060606       0.00000000       0.00000000       0.63316184
2
Properties=species:S:1:pos:R:3:forces:R:3 energy=-17.33273051033605 pbc="F F F"
Eu       0.00000000       0.00000000       0.00000000       0.00000000       0.00000000      -0.51835960
Eu       0.00000000       0.00000000       3.11939394       0.00000000       0.00000000       0.51835960
2
Properties=species:S:1:pos:R:3:forces:R:3 energy=-17.360249897527883 pbc="F F F"
Eu       0.00000000       0.00000000       0.00000000       0.00000000       0.00000000      -0.42056021
Eu       0.00000000       0.00000000       3.17818182       0.00000000       0.00000000       0.42056021
2
Properties=species:S:1:pos:R:3:forces:R:3 energy=-17.38247553532155 pbc="F F F"
Eu       0.00000000       0.00000000       0.00000000       0.00000000       0.00000000      -0.33803281
Eu       0.00000000       0.00000000       3.23696970       0.00000000       0.00000000       0.33803281
2
Properties=species:S:1:pos:R:3:forces:R:3 energy=-17.400283831245815 pbc="F F F"
Eu       0.00000000       0.00000000       0.00000000       0.00000000       0.00000000      -0.27031592
Eu       0.00000000       0.00000000       3.29575758       0.00000000       0.00000000       0.27031592
2
Properties=species:S:1:pos:R:3:forces:R:3 energy=-17.414570198686537 pbc="F F F"
Eu       0.00000000       0.00000000       0.00000000       0.00000000       0.00000000      -0.21853039
Eu       0.00000000       0.00000000       3.35454545       0.00000000       0.00000000       0.21853039
2
Properties=species:S:1:pos:R:3:forces:R:3 energy=-17.42633238493728 pbc="F F F"
Eu       0.00000000       0.00000000       0.00000000       0.00000000       0.00000000      -0.18486488
Eu       0.00000000       0.00000000       3.41333333       0.00000000       0.00000000       0.18486488
2
Properties=species:S:1:pos:R:3:forces:R:3 energy=-17.436692139132 pbc="F F F"
Eu       0.00000000       0.00000000       0.00000000       0.00000000       0.00000000      -0.17079735
Eu       0.00000000       0.00000000       3.47212121       0.00000000       0.00000000       0.17079735
2
Properties=species:S:1:pos:R:3:forces:R:3 energy=-17.446738866882168 pbc="F F F"
Eu       0.00000000       0.00000000       0.00000000       0.00000000       0.00000000      -0.17290269
Eu       0.00000000       0.00000000       3.53090909       0.00000000       0.00000000       0.17290269
2
Properties=species:S:1:pos:R:3:forces:R:3 energy=-17.45705951433888 pbc="F F F"
Eu       0.00000000       0.00000000       0.00000000       0.00000000       0.00000000      -0.17644620
Eu       0.00000000       0.00000000       3.58969697       0.00000000       0.00000000       0.17644620
2
Properties=species:S:1:pos:R:3:forces:R:3 energy=-17.466992816562335 pbc="F F F"
Eu       0.00000000       0.00000000       0.00000000       0.00000000       0.00000000      -0.15510328
Eu       0.00000000       0.00000000       3.64848485       0.00000000       0.00000000       0.15510328
2
Properties=species:S:1:pos:R:3:forces:R:3 energy=-17.47443076630062 pbc="F F F"
Eu       0.00000000       0.00000000       0.00000000       0.00000000       0.00000000      -0.09090388
Eu       0.00000000       0.00000000       3.70727273       0.00000000       0.00000000       0.09090388
2
Properties=species:S:1:pos:R:3:forces:R:3 energy=-17.47710060914769 pbc="F F F"
Eu       0.00000000       0.00000000       0.00000000       0.00000000       0.00000000       0.00223090
Eu       0.00000000       0.00000000       3.76606061       0.00000000       0.00000000      -0.00223090
2
Properties=species:S:1:pos:R:3:forces:R:3 energy=-17.474239372436962 pbc="F F F"
Eu       0.00000000       0.00000000       0.00000000       0.00000000       0.00000000       0.09232197
Eu       0.00000000       0.00000000       3.82484848       0.00000000       0.00000000      -0.09232197
2
Properties=species:S:1:pos:R:3:forces:R:3 energy=-17.466680468820048 pbc="F F F"
Eu       0.00000000       0.00000000       0.00000000       0.00000000       0.00000000       0.16088626
Eu       0.00000000       0.00000000       3.88363636       0.00000000       0.00000000      -0.16088626
2
Properties=species:S:1:pos:R:3:forces:R:3 energy=-17.455747774418345 pbc="F F F"
Eu       0.00000000       0.00000000       0.00000000       0.00000000       0.00000000       0.20807475
Eu       0.00000000       0.00000000       3.94242424       0.00000000       0.00000000      -0.20807475
2
Properties=species:S:1:pos:R:3:forces:R:3 energy=-17.44249966831918 pbc="F F F"
Eu       0.00000000       0.00000000       0.00000000       0.00000000       0.00000000       0.24072221
Eu       0.00000000       0.00000000       4.00121212       0.00000000       0.00000000      -0.24072221
2
Properties=species:S:1:pos:R:3:forces:R:3 energy=-17.427613914558343 pbc="F F F"
Eu       0.00000000       0.00000000       0.00000000       0.00000000       0.00000000       0.26460326
Eu       0.00000000       0.00000000       4.06000000       0.00000000       0.00000000      -0.26460326
2
Properties=species:S:1:pos:R:3:forces:R:3 energy=-17.411492403892368 pbc="F F F"
Eu       0.00000000       0.00000000       0.00000000       0.00000000       0.00000000       0.28312242
Eu       0.00000000       0.00000000       4.11878788       0.00000000       0.00000000      -0.28312242
2
Properties=species:S:1:pos:R:3:forces:R:3 energy=-17.394392440380194 pbc="F F F"
Eu       0.00000000       0.00000000       0.00000000       0.00000000       0.00000000       0.29814440
Eu       0.00000000       0.00000000       4.17757576       0.00000000       0.00000000      -0.29814440
2
Properties=species:S:1:pos:R:3:forces:R:3 energy=-17.376485368238512 pbc="F F F"
Eu       0.00000000       0.00000000       0.00000000       0.00000000       0.00000000       0.31078646
Eu       0.00000000       0.00000000       4.23636364       0.00000000       0.00000000      -0.31078646
2
Properties=species:S:1:pos:R:3:forces:R:3 energy=-17.3578831229285 pbc="F F F"
Eu       0.00000000       0.00000000       0.00000000       0.00000000       0.00000000       0.32180524
Eu       0.00000000       0.00000000       4.29515152       0.00000000       0.00000000      -0.32180524
2
Properties=species:S:1:pos:R:3:forces:R:3 energy=-17.33867066619626 pbc="F F F"
Eu       0.00000000       0.00000000       0.00000000       0.00000000       0.00000000       0.33173415
Eu       0.00000000       0.00000000       4.35393939       0.00000000       0.00000000      -0.33173415
2
Properties=species:S:1:pos:R:3:forces:R:3 energy=-17.318894864139804 pbc="F F F"
Eu       0.00000000       0.00000000       0.00000000       0.00000000       0.00000000       0.34092498
Eu       0.00000000       0.00000000       4.41272727       0.00000000       0.00000000      -0.34092498
2
Properties=species:S:1:pos:R:3:forces:R:3 energy=-17.298595492312067 pbc="F F F"
Eu       0.00000000       0.00000000       0.00000000       0.00000000       0.00000000       0.34956732
Eu       0.00000000       0.00000000       4.47151515       0.00000000       0.00000000      -0.34956732
2
Properties=species:S:1:pos:R:3:forces:R:3 energy=-17.277804544816 pbc="F F F"
Eu       0.00000000       0.00000000       0.00000000       0.00000000       0.00000000       0.35768411
Eu       0.00000000       0.00000000       4.53030303       0.00000000       0.00000000      -0.35768411
2
Properties=species:S:1:pos:R:3:forces:R:3 energy=-17.256553990411966 pbc="F F F"
Eu       0.00000000       0.00000000       0.00000000       0.00000000       0.00000000       0.36513838
Eu       0.00000000       0.00000000       4.58909091       0.00000000       0.00000000      -0.36513838
2
Properties=species:S:1:pos:R:3:forces:R:3 energy=-17.234891436788057 pbc="F F F"
Eu       0.00000000       0.00000000       0.00000000       0.00000000       0.00000000       0.37164706
Eu       0.00000000       0.00000000       4.64787879       0.00000000       0.00000000      -0.37164706
2
Properties=species:S:1:pos:R:3:forces:R:3 energy=-17.212884262039566 pbc="F F F"
Eu       0.00000000       0.00000000       0.00000000       0.00000000       0.00000000       0.37679502
Eu       0.00000000       0.00000000       4.70666667       0.00000000       0.00000000      -0.37679502
2
Properties=species:S:1:pos:R:3:forces:R:3 energy=-17.190624703150444 pbc="F F F"
Eu       0.00000000       0.00000000       0.00000000       0.00000000       0.00000000       0.38012695
Eu       0.00000000       0.00000000       4.76545455       0.00000000       0.00000000      -0.38012695
2
Properties=species:S:1:pos:R:3:forces:R:3 energy=-17.16823262498958 pbc="F F F"
Eu       0.00000000       0.00000000       0.00000000       0.00000000       0.00000000       0.38126561
Eu       0.00000000       0.00000000       4.82424242       0.00000000       0.00000000      -0.38126561
2
Properties=species:S:1:pos:R:3:forces:R:3 energy=-17.145845540072525 pbc="F F F"
Eu       0.00000000       0.00000000       0.00000000       0.00000000       0.00000000       0.38006461
Eu       0.00000000       0.00000000       4.88303030       0.00000000       0.00000000      -0.38006461
2
Properties=species:S:1:pos:R:3:forces:R:3 energy=-17.12358840142993 pbc="F F F"
Eu       0.00000000       0.00000000       0.00000000       0.00000000       0.00000000       0.37677273
Eu       0.00000000       0.00000000       4.94181818       0.00000000       0.00000000      -0.37677273
2
Properties=species:S:1:pos:R:3:forces:R:3 energy=-17.101571251763822 pbc="F F F"
Eu       0.00000000       0.00000000       0.00000000       0.00000000       0.00000000       0.37209076
Eu       0.00000000       0.00000000       5.00060606       0.00000000       0.00000000      -0.37209076
2
Properties=species:S:1:pos:R:3:forces:R:3 energy=-17.079845715560776 pbc="F F F"
Eu       0.00000000       0.00000000       0.00000000       0.00000000       0.00000000       0.36705241
Eu       0.00000000       0.00000000       5.05939394       0.00000000       0.00000000      -0.36705241
2
Properties=species:S:1:pos:R:3:forces:R:3 energy=-17.058399327731166 pbc="F F F"
Eu       0.00000000       0.00000000       0.00000000       0.00000000       0.00000000       0.36271495
Eu       0.00000000       0.00000000       5.11818182       0.00000000       0.00000000      -0.36271495
2
Properties=species:S:1:pos:R:3:forces:R:3 energy=-17.037178098674893 pbc="F F F"
Eu       0.00000000       0.00000000       0.00000000       0.00000000       0.00000000       0.35945627
Eu       0.00000000       0.00000000       5.17696970       0.00000000       0.00000000      -0.35945627
2
Properties=species:S:1:pos:R:3:forces:R:3 energy=-17.01613998973521 pbc="F F F"
Eu       0.00000000       0.00000000       0.00000000       0.00000000       0.00000000       0.35604623
Eu       0.00000000       0.00000000       5.23575758       0.00000000       0.00000000      -0.35604623
2
Properties=species:S:1:pos:R:3:forces:R:3 energy=-16.99539034762292 pbc="F F F"
Eu       0.00000000       0.00000000       0.00000000       0.00000000       0.00000000       0.34882966
Eu       0.00000000       0.00000000       5.29454545       0.00000000       0.00000000      -0.34882966
2
Properties=species:S:1:pos:R:3:forces:R:3 energy=-16.97528289252362 pbc="F F F"
Eu       0.00000000       0.00000000       0.00000000       0.00000000       0.00000000       0.33379686
Eu       0.00000000       0.00000000       5.35333333       0.00000000       0.00000000      -0.33379686
2
Properties=species:S:1:pos:R:3:forces:R:3 energy=-16.95621927542885 pbc="F F F"
Eu       0.00000000       0.00000000       0.00000000       0.00000000       0.00000000       0.31533378
Eu       0.00000000       0.00000000       5.41212121       0.00000000       0.00000000      -0.31533378
2
Properties=species:S:1:pos:R:3:forces:R:3 energy=-16.937960575964812 pbc="F F F"
Eu       0.00000000       0.00000000       0.00000000       0.00000000       0.00000000       0.30872837
Eu       0.00000000       0.00000000       5.47090909       0.00000000       0.00000000      -0.30872837
2
Properties=species:S:1:pos:R:3:forces:R:3 energy=-16.919756837372645 pbc="F F F"
Eu       0.00000000       0.00000000       0.00000000       0.00000000       0.00000000       0.30924860
Eu       0.00000000       0.00000000       5.52969697       0.00000000       0.00000000      -0.30924860
2
Properties=species:S:1:pos:R:3:forces:R:3 energy=-16.90202537491419 pbc="F F F"
Eu       0.00000000       0.00000000       0.00000000       0.00000000       0.00000000       0.28964391
Eu       0.00000000       0.00000000       5.58848485       0.00000000       0.00000000      -0.28964391
2
Properties=species:S:1:pos:R:3:forces:R:3 energy=-16.88604199446973 pbc="F F F"
Eu       0.00000000       0.00000000       0.00000000       0.00000000       0.00000000       0.25384107
Eu       0.00000000       0.00000000       5.64727273       0.00000000       0.00000000      -0.25384107
2
Properties=species:S:1:pos:R:3:forces:R:3 energy=-16.871800421513523 pbc="F F F"
Eu       0.00000000       0.00000000       0.00000000       0.00000000       0.00000000       0.23744151
Eu       0.00000000       0.00000000       5.70606061       0.00000000       0.00000000      -0.23744151
2
Properties=species:S:1:pos:R:3:forces:R:3 energy=-16.85727432825527 pbc="F F F"
Eu       0.00000000       0.00000000       0.00000000       0.00000000       0.00000000       0.25962210
Eu       0.00000000       0.00000000       5.76484848       0.00000000       0.00000000      -0.25962210
2
Properties=species:S:1:pos:R:3:forces:R:3 energy=-16.84177813895194 pbc="F F F"
Eu       0.00000000       0.00000000       0.00000000       0.00000000       0.00000000       0.25646919
Eu       0.00000000       0.00000000       5.82363636       0.00000000       0.00000000      -0.25646919
2
Properties=species:S:1:pos:R:3:forces:R:3 energy=-16.828747538733193 pbc="F F F"
Eu       0.00000000       0.00000000       0.00000000       0.00000000       0.00000000       0.17725381
Eu       0.00000000       0.00000000       5.88242424       0.00000000       0.00000000      -0.17725381
2
Properties=species:S:1:pos:R:3:forces:R:3 energy=-16.8212878992904 pbc="F F F"
Eu       0.00000000       0.00000000       0.00000000       0.00000000       0.00000000       0.08004305
Eu       0.00000000       0.00000000       5.94121212       0.00000000       0.00000000      -0.08004305
2
Properties=species:S:1:pos:R:3:forces:R:3 energy=-16.81818012611282 pbc="F F F"
Eu       0.00000000       0.00000000       0.00000000       0.00000000       0.00000000       0.03898740
Eu       0.00000000       0.00000000       6.00000000       0.00000000       0.00000000      -0.03898740
