2
Properties=species:S:1:pos:R:3:forces:R:3 energy=1648.4839549304818 pbc="F F F"
F        0.00000000       0.00000000       0.00000000       0.00000000       0.00000000   -9934.78027344
F        0.00000000       0.00000000       0.18000000       0.00000000       0.00000000    9934.78027344
2
Properties=species:S:1:pos:R:3:forces:R:3 energy=1234.7500682121279 pbc="F F F"
F        0.00000000       0.00000000       0.00000000       0.00000000       0.00000000   -5311.33740234
F        0.00000000       0.00000000       0.23878788       0.00000000       0.00000000    5311.33740234
2
Properties=species:S:1:pos:R:3:forces:R:3 energy=938.2619700691804 pbc="F F F"
F        0.00000000       0.00000000       0.00000000       0.00000000       0.00000000   -5513.83886719
F        0.00000000       0.00000000       0.29757576       0.00000000       0.00000000    5513.83886719
2
Properties=species:S:1:pos:R:3:forces:R:3 energy=676.5584788618067 pbc="F F F"
F        0.00000000       0.00000000       0.00000000       0.00000000       0.00000000   -3295.69335938
F        0.00000000       0.00000000       0.35636364       0.00000000       0.00000000    3295.69335938
2
Properties=species:S:1:pos:R:3:forces:R:3 energy=481.55649522754413 pbc="F F F"
F        0.00000000       0.00000000       0.00000000       0.00000000       0.00000000   -3019.23730469
F        0.00000000       0.00000000       0.41515152       0.00000000       0.00000000    3019.23730469
2
Properties=species:S:1:pos:R:3:forces:R:3 energy=324.75553088910243 pbc="F F F"
F        0.00000000       0.00000000       0.00000000       0.00000000       0.00000000   -2323.87182617
F        0.00000000       0.00000000       0.47393939       0.00000000       0.00000000    2323.87182617
2
Properties=species:S:1:pos:R:3:forces:R:3 energy=210.58298453326995 pbc="F F F"
F        0.00000000       0.00000000       0.00000000       0.00000000       0.00000000   -1540.36462402
F        0.00000000       0.00000000       0.53272727       0.00000000       0.00000000    1540.36462402
2
Properties=species:S:1:pos:R:3:forces:R:3 energy=137.45586361583923 pbc="F F F"
F        0.00000000       0.00000000       0.00000000       0.00000000       0.00000000   -1027.90820312
F        0.00000000       0.00000000       0.59151515       0.00000000       0.00000000    1027.90820312
2
Properties=species:S:1:pos:R:3:forces:R:3 energy=87.47965215747864 pbc="F F F"
F        0.00000000       0.00000000       0.00000000       0.00000000       0.00000000    -676.41296387
F        0.00000000       0.00000000       0.65030303       0.00000000       0.00000000     676.41296387
2
Properties=species:S:1:pos:R:3:forces:R:3 energy=56.07459248359762 pbc="F F F"
F        0.00000000       0.00000000       0.00000000       0.00000000       0.00000000    -412.30514526
F        0.00000000       0.00000000       0.70909091       0.00000000       0.00000000     412.30514526
2
Properties=species:S:1:pos:R:3:forces:R:3 energy=36.78172312915854 pbc="F F F"
F        0.00000000       0.00000000       0.00000000       0.00000000       0.00000000    -259.44802856
F        0.00000000       0.00000000       0.76787879       0.00000000       0.00000000     259.44802856
2
Properties=species:S:1:pos:R:3:forces:R:3 energy=24.33146518816403 pbc="F F F"
F        0.00000000       0.00000000       0.00000000       0.00000000       0.00000000    -171.74484253
F        0.00000000       0.00000000       0.82666667       0.00000000       0.00000000     171.74484253
2
Properties=species:S:1:pos:R:3:forces:R:3 energy=15.890064155970379 pbc="F F F"
F        0.00000000       0.00000000       0.00000000       0.00000000       0.00000000    -119.74355316
F        0.00000000       0.00000000       0.88545455       0.00000000       0.00000000     119.74355316
2
Properties=species:S:1:pos:R:3:forces:R:3 energy=9.898914882439326 pbc="F F F"
F        0.00000000       0.00000000       0.00000000       0.00000000       0.00000000     -86.13850403
F        0.00000000       0.00000000       0.94424242       0.00000000       0.00000000      86.13850403
2
Properties=species:S:1:pos:R:3:forces:R:3 energy=5.586709950237695 pbc="F F F"
F        0.00000000       0.00000000       0.00000000       0.00000000       0.00000000     -61.63650513
F        0.00000000       0.00000000       1.00303030       0.00000000       0.00000000      61.63650513
2
Properties=species:S:1:pos:R:3:forces:R:3 energy=2.5558044229110406 pbc="F F F"
F        0.00000000       0.00000000       0.00000000       0.00000000       0.00000000     -42.14176178
F        0.00000000       0.00000000       1.06181818       0.00000000       0.00000000      42.14176178
2
Properties=species:S:1:pos:R:3:forces:R:3 energy=0.5589243198681197 pbc="F F F"
F        0.00000000       0.00000000       0.00000000       0.00000000       0.00000000     -26.40596771
F        0.00000000       0.00000000       1.12060606       0.00000000       0.00000000      26.40596771
2
Properties=species:S:1:pos:R:3:forces:R:3 energy=-0.6223599443276231 pbc="F F F"
F        0.00000000       0.00000000       0.00000000       0.00000000       0.00000000     -14.41319752
F        0.00000000       0.00000000       1.17939394       0.00000000       0.00000000      14.41319752
2
Properties=species:S:1:pos:R:3:forces:R:3 energy=-1.2154666361319613 pbc="F F F"
F        0.00000000       0.00000000       0.00000000       0.00000000       0.00000000      -6.48862553
F        0.00000000       0.00000000       1.23818182       0.00000000       0.00000000       6.48862553
2
Properties=species:S:1:pos:R:3:forces:R:3 energy=-1.4676769597415489 pbc="F F F"
F        0.00000000       0.00000000       0.00000000       0.00000000       0.00000000      -2.70413065
F        0.00000000       0.00000000       1.29696970       0.00000000       0.00000000       2.70413065
2
Properties=species:S:1:pos:R:3:forces:R:3 energy=-1.586086191344348 pbc="F F F"
F        0.00000000       0.00000000       0.00000000       0.00000000       0.00000000      -1.59166443
F        0.00000000       0.00000000       1.35575758       0.00000000       0.00000000       1.59166443
2
Properties=species:S:1:pos:R:3:forces:R:3 energy=-1.668466009346957 pbc="F F F"
F        0.00000000       0.00000000       0.00000000       0.00000000       0.00000000      -1.21695161
F        0.00000000       0.00000000       1.41454545       0.00000000       0.00000000       1.21695161
2
Properties=species:S:1:pos:R:3:forces:R:3 energy=-1.724391359871516 pbc="F F F"
F        0.00000000       0.00000000       0.00000000       0.00000000       0.00000000      -0.63094127
F        0.00000000       0.00000000       1.47333333       0.00000000       0.00000000       0.63094127
2
Properties=species:S:1:pos:R:3:forces:R:3 energy=-1.7379394946443345 pbc="F F F"
F        0.00000000       0.00000000       0.00000000       0.00000000       0.00000000       0.18808977
F        0.00000000       0.00000000       1.53212121       0.00000000       0.00000000      -0.18808977
2
Properties=species:S:1:pos:R:3:forces:R:3 energy=-1.7027573473489392 pbc="F F F"
F        0.00000000       0.00000000       0.00000000       0.00000000       0.00000000       0.98594987
F        0.00000000       0.00000000       1.59090909       0.00000000       0.00000000      -0.98594987
2
Properties=species:S:1:pos:R:3:forces:R:3 energy=-1.6262794057999597 pbc="F F F"
F        0.00000000       0.00000000       0.00000000       0.00000000       0.00000000       1.56906509
F        0.00000000       0.00000000       1.64969697       0.00000000       0.00000000      -1.56906509
2
Properties=species:S:1:pos:R:3:forces:R:3 energy=-1.524584666852339 pbc="F F F"
F        0.00000000       0.00000000       0.00000000       0.00000000       0.00000000       1.83266175
F        0.00000000       0.00000000       1.70848485       0.00000000       0.00000000      -1.83266175
2
Properties=species:S:1:pos:R:3:forces:R:3 energy=-1.4176006202009868 pbc="F F F"
F        0.00000000       0.00000000       0.00000000       0.00000000       0.00000000       1.75299764
F        0.00000000       0.00000000       1.76727273       0.00000000       0.00000000      -1.75299764
2
Properties=species:S:1:pos:R:3:forces:R:3 energy=-1.323744684424842 pbc="F F F"
F        0.00000000       0.00000000       0.00000000       0.00000000       0.00000000       1.40730381
F        0.00000000       0.00000000       1.82606061       0.00000000       0.00000000      -1.40730381
2
Properties=species:S:1:pos:R:3:forces:R:3 energy=-1.2543432845877702 pbc="F F F"
F        0.00000000       0.00000000       0.00000000       0.00000000       0.00000000       0.94827569
F        0.00000000       0.00000000       1.88484848       0.00000000       0.00000000      -0.94827569
2
Properties=species:S:1:pos:R:3:forces:R:3 energy=-1.2116688791199808 pbc="F F F"
F        0.00000000       0.00000000       0.00000000       0.00000000       0.00000000       0.51634431
F        0.00000000       0.00000000       1.94363636       0.00000000       0.00000000      -0.51634431
2
Properties=species:S:1:pos:R:3:forces:R:3 energy=-1.191639018348556 pbc="F F F"
F        0.00000000       0.00000000       0.00000000       0.00000000       0.00000000       0.18404946
F        0.00000000       0.00000000       2.00242424       0.00000000       0.00000000      -0.18404946
2
Properties=species:S:1:pos:R:3:forces:R:3 energy=-1.187847363752558 pbc="F F F"
F        0.00000000       0.00000000       0.00000000       0.00000000       0.00000000      -0.03785522
F        0.00000000       0.00000000       2.06121212       0.00000000       0.00000000       0.03785522
2
Properties=species:S:1:pos:R:3:forces:R:3 energy=-1.1943179635789194 pbc="F F F"
F        0.00000000       0.00000000       0.00000000       0.00000000       0.00000000      -0.16949934
F        0.00000000       0.00000000       2.12000000       0.00000000       0.00000000       0.16949934
2
Properties=species:S:1:pos:R:3:forces:R:3 energy=-1.206528772747816 pbc="F F F"
F        0.00000000       0.00000000       0.00000000       0.00000000       0.00000000      -0.23727518
F        0.00000000       0.00000000       2.17878788       0.00000000       0.00000000       0.23727518
2
Properties=species:S:1:pos:R:3:forces:R:3 energy=-1.2213930634473376 pbc="F F F"
F        0.00000000       0.00000000       0.00000000       0.00000000       0.00000000      -0.26282239
F        0.00000000       0.00000000       2.23757576       0.00000000       0.00000000       0.26282239
2
Properties=species:S:1:pos:R:3:forces:R:3 energy=-1.2369011504133458 pbc="F F F"
F        0.00000000       0.00000000       0.00000000       0.00000000       0.00000000      -0.26121506
F        0.00000000       0.00000000       2.29636364       0.00000000       0.00000000       0.26121506
2
Properties=species:S:1:pos:R:3:forces:R:3 energy=-1.2517752118681054 pbc="F F F"
F        0.00000000       0.00000000       0.00000000       0.00000000       0.00000000      -0.24264579
F        0.00000000       0.00000000       2.35515152       0.00000000       0.00000000       0.24264579
2
Properties=species:S:1:pos:R:3:forces:R:3 energy=-1.2652411494506126 pbc="F F F"
F        0.00000000       0.00000000       0.00000000       0.00000000       0.00000000      -0.21434011
F        0.00000000       0.00000000       2.41393939       0.00000000       0.00000000       0.21434011
2
Properties=species:S:1:pos:R:3:forces:R:3 energy=-1.2768917046499664 pbc="F F F"
F        0.00000000       0.00000000       0.00000000       0.00000000       0.00000000      -0.18166161
F        0.00000000       0.00000000       2.47272727       0.00000000       0.00000000       0.18166161
2
Properties=species:S:1:pos:R:3:forces:R:3 energy=-1.2865920806860434 pbc="F F F"
F        0.00000000       0.00000000       0.00000000       0.00000000       0.00000000      -0.14851572
F        0.00000000       0.00000000       2.53151515       0.00000000       0.00000000       0.14851572
2
Properties=species:S:1:pos:R:3:forces:R:3 energy=-1.2943959728202734 pbc="F F F"
F        0.00000000       0.00000000       0.00000000       0.00000000       0.00000000      -0.11748827
F        0.00000000       0.00000000       2.59030303       0.00000000       0.00000000       0.11748827
2
Properties=species:S:1:pos:R:3:forces:R:3 energy=-1.3004752301230715 pbc="F F F"
F        0.00000000       0.00000000       0.00000000       0.00000000       0.00000000      -0.08999022
F        0.00000000       0.00000000       2.64909091       0.00000000       0.00000000       0.08999022
2
Properties=species:S:1:pos:R:3:forces:R:3 energy=-1.3050556388886816 pbc="F F F"
F        0.00000000       0.00000000       0.00000000       0.00000000       0.00000000      -0.06650218
F        0.00000000       0.00000000       2.70787879       0.00000000       0.00000000       0.06650218
2
Properties=species:S:1:pos:R:3:forces:R:3 energy=-1.3083696068426443 pbc="F F F"
F        0.00000000       0.00000000       0.00000000       0.00000000       0.00000000      -0.04686886
F        0.00000000       0.00000000       2.76666667       0.00000000       0.00000000       0.04686886
2
Properties=species:S:1:pos:R:3:forces:R:3 energy=-1.3106318460306419 pbc="F F F"
F        0.00000000       0.00000000       0.00000000       0.00000000       0.00000000      -0.03059028
F        0.00000000       0.00000000       2.82545455       0.00000000       0.00000000       0.03059028
2
Properties=species:S:1:pos:R:3:forces:R:3 energy=-1.3120206561680823 pbc="F F F"
F        0.00000000       0.00000000       0.00000000       0.00000000       0.00000000      -0.01705224
F        0.00000000       0.00000000       2.88424242       0.00000000       0.00000000       0.01705224
2
Properties=species:S:1:pos:R:3:forces:R:3 energy=-1.3126789741610168 pbc="F F F"
F        0.00000000       0.00000000       0.00000000       0.00000000       0.00000000      -0.00566967
F        0.00000000       0.00000000       2.94303030       0.00000000       0.00000000       0.00566967
2
Properties=species:S:1:pos:R:3:forces:R:3 energy=-1.3127194807026799 pbc="F F F"
F        0.00000000       0.00000000       0.00000000       0.00000000       0.00000000       0.00404639
F        0.00000000       0.00000000       3.00181818       0.00000000       0.00000000      -0.00404639
2
Properties=species:S:1:pos:R:3:forces:R:3 energy=-1.3122280197249987 pbc="F F F"
F        0.00000000       0.00000000       0.00000000       0.00000000       0.00000000       0.01248915
F        0.00000000       0.00000000       3.06060606       0.00000000       0.00000000      -0.01248915
2
Properties=species:S:1:pos:R:3:forces:R:3 energy=-1.3112693984720931 pbc="F F F"
F        0.00000000       0.00000000       0.00000000       0.00000000       0.00000000       0.01999468
F        0.00000000       0.00000000       3.11939394       0.00000000       0.00000000      -0.01999468
2
Properties=species:S:1:pos:R:3:forces:R:3 energy=-1.3098892544591754 pbc="F F F"
F        0.00000000       0.00000000       0.00000000       0.00000000       0.00000000       0.02688865
F        0.00000000       0.00000000       3.17818182       0.00000000       0.00000000      -0.02688865
2
Properties=species:S:1:pos:R:3:forces:R:3 energy=-1.3081131738861698 pbc="F F F"
F        0.00000000       0.00000000       0.00000000       0.00000000       0.00000000       0.03352286
F        0.00000000       0.00000000       3.23696970       0.00000000       0.00000000      -0.03352286
2
Properties=species:S:1:pos:R:3:forces:R:3 energy=-1.3059452122229827 pbc="F F F"
F        0.00000000       0.00000000       0.00000000       0.00000000       0.00000000       0.04028450
F        0.00000000       0.00000000       3.29575758       0.00000000       0.00000000      -0.04028450
2
Properties=species:S:1:pos:R:3:forces:R:3 energy=-1.3033662003328503 pbc="F F F"
F        0.00000000       0.00000000       0.00000000       0.00000000       0.00000000       0.04758031
F        0.00000000       0.00000000       3.35454545       0.00000000       0.00000000      -0.04758031
2
Properties=species:S:1:pos:R:3:forces:R:3 energy=-1.3003332302152808 pbc="F F F"
F        0.00000000       0.00000000       0.00000000       0.00000000       0.00000000       0.05578338
F        0.00000000       0.00000000       3.41333333       0.00000000       0.00000000      -0.05578338
2
Properties=species:S:1:pos:R:3:forces:R:3 energy=-1.296784167338047 pbc="F F F"
F        0.00000000       0.00000000       0.00000000       0.00000000       0.00000000       0.06517330
F        0.00000000       0.00000000       3.47212121       0.00000000       0.00000000      -0.06517330
2
Properties=species:S:1:pos:R:3:forces:R:3 energy=-1.2926447915132144 pbc="F F F"
F        0.00000000       0.00000000       0.00000000       0.00000000       0.00000000       0.07586491
F        0.00000000       0.00000000       3.53090909       0.00000000       0.00000000      -0.07586491
2
Properties=species:S:1:pos:R:3:forces:R:3 energy=-1.2878404786155626 pbc="F F F"
F        0.00000000       0.00000000       0.00000000       0.00000000       0.00000000       0.08775246
F        0.00000000       0.00000000       3.58969697       0.00000000       0.00000000      -0.08775246
2
Properties=species:S:1:pos:R:3:forces:R:3 energy=-1.282310506687275 pbc="F F F"
F        0.00000000       0.00000000       0.00000000       0.00000000       0.00000000       0.10048495
F        0.00000000       0.00000000       3.64848485       0.00000000       0.00000000      -0.10048495
2
Properties=species:S:1:pos:R:3:forces:R:3 energy=-1.2760207115255429 pbc="F F F"
F        0.00000000       0.00000000       0.00000000       0.00000000       0.00000000       0.11348420
F        0.00000000       0.00000000       3.70727273       0.00000000       0.00000000      -0.11348420
2
Properties=species:S:1:pos:R:3:forces:R:3 energy=-1.268976721091582 pbc="F F F"
F        0.00000000       0.00000000       0.00000000       0.00000000       0.00000000       0.12601005
F        0.00000000       0.00000000       3.76606061       0.00000000       0.00000000      -0.12601005
2
Properties=species:S:1:pos:R:3:forces:R:3 energy=-1.261229826662143 pbc="F F F"
F        0.00000000       0.00000000       0.00000000       0.00000000       0.00000000       0.13726835
F        0.00000000       0.00000000       3.82484848       0.00000000       0.00000000      -0.13726835
2
Properties=species:S:1:pos:R:3:forces:R:3 energy=-1.2528762761862897 pbc="F F F"
F        0.00000000       0.00000000       0.00000000       0.00000000       0.00000000       0.14654729
F        0.00000000       0.00000000       3.88363636       0.00000000       0.00000000      -0.14654729
2
Properties=species:S:1:pos:R:3:forces:R:3 energy=-1.244048358535284 pbc="F F F"
F        0.00000000       0.00000000       0.00000000       0.00000000       0.00000000       0.15333477
F        0.00000000       0.00000000       3.94242424       0.00000000       0.00000000      -0.15333477
2
Properties=species:S:1:pos:R:3:forces:R:3 energy=-1.234901184437704 pbc="F F F"
F        0.00000000       0.00000000       0.00000000       0.00000000       0.00000000       0.15740557
F        0.00000000       0.00000000       4.00121212       0.00000000       0.00000000      -0.15740557
2
Properties=species:S:1:pos:R:3:forces:R:3 energy=-1.2255935113058447 pbc="F F F"
F        0.00000000       0.00000000       0.00000000       0.00000000       0.00000000       0.15883288
F        0.00000000       0.00000000       4.06000000       0.00000000       0.00000000      -0.15883288
2
Properties=species:S:1:pos:R:3:forces:R:3 energy=-1.2162719006755178 pbc="F F F"
F        0.00000000       0.00000000       0.00000000       0.00000000       0.00000000       0.15794007
F        0.00000000       0.00000000       4.11878788       0.00000000       0.00000000      -0.15794007
2
Properties=species:S:1:pos:R:3:forces:R:3 energy=-1.207059645205367 pbc="F F F"
F        0.00000000       0.00000000       0.00000000       0.00000000       0.00000000       0.15519948
F        0.00000000       0.00000000       4.17757576       0.00000000       0.00000000      -0.15519948
2
Properties=species:S:1:pos:R:3:forces:R:3 energy=-1.198050103153082 pbc="F F F"
F        0.00000000       0.00000000       0.00000000       0.00000000       0.00000000       0.15112694
F        0.00000000       0.00000000       4.23636364       0.00000000       0.00000000      -0.15112694
2
Properties=species:S:1:pos:R:3:forces:R:3 energy=-1.1893073003615113 pbc="F F F"
F        0.00000000       0.00000000       0.00000000       0.00000000       0.00000000       0.14620236
F        0.00000000       0.00000000       4.29515152       0.00000000       0.00000000      -0.14620236
2
Properties=species:S:1:pos:R:3:forces:R:3 energy=-1.180869277919221 pbc="F F F"
F        0.00000000       0.00000000       0.00000000       0.00000000       0.00000000       0.14082594
F        0.00000000       0.00000000       4.35393939       0.00000000       0.00000000      -0.14082594
2
Properties=species:S:1:pos:R:3:forces:R:3 energy=-1.1727526233509262 pbc="F F F"
F        0.00000000       0.00000000       0.00000000       0.00000000       0.00000000       0.13530676
F        0.00000000       0.00000000       4.41272727       0.00000000       0.00000000      -0.13530676
2
Properties=species:S:1:pos:R:3:forces:R:3 energy=-1.1649589152942155 pbc="F F F"
F        0.00000000       0.00000000       0.00000000       0.00000000       0.00000000       0.12985383
F        0.00000000       0.00000000       4.47151515       0.00000000       0.00000000      -0.12985383
2
Properties=species:S:1:pos:R:3:forces:R:3 energy=-1.1574813997642324 pbc="F F F"
F        0.00000000       0.00000000       0.00000000       0.00000000       0.00000000       0.12455748
F        0.00000000       0.00000000       4.53030303       0.00000000       0.00000000      -0.12455748
2
Properties=species:S:1:pos:R:3:forces:R:3 energy=-1.1503121445919444 pbc="F F F"
F        0.00000000       0.00000000       0.00000000       0.00000000       0.00000000       0.11935615
F        0.00000000       0.00000000       4.58909091       0.00000000       0.00000000      -0.11935615
2
Properties=species:S:1:pos:R:3:forces:R:3 energy=-1.143450864178386 pbc="F F F"
F        0.00000000       0.00000000       0.00000000       0.00000000       0.00000000       0.11402348
F        0.00000000       0.00000000       4.64787879       0.00000000       0.00000000      -0.11402348
2
Properties=species:S:1:pos:R:3:forces:R:3 energy=-1.136915288772458 pbc="F F F"
F        0.00000000       0.00000000       0.00000000       0.00000000       0.00000000       0.10819907
F        0.00000000       0.00000000       4.70666667       0.00000000       0.00000000      -0.10819907
2
Properties=species:S:1:pos:R:3:forces:R:3 energy=-1.1307466500286383 pbc="F F F"
F        0.00000000       0.00000000       0.00000000       0.00000000       0.00000000       0.10149226
F        0.00000000       0.00000000       4.76545455       0.00000000       0.00000000      -0.10149226
2
Properties=species:S:1:pos:R:3:forces:R:3 energy=-1.1250045543145701 pbc="F F F"
F        0.00000000       0.00000000       0.00000000       0.00000000       0.00000000       0.09364262
F        0.00000000       0.00000000       4.82424242       0.00000000       0.00000000      -0.09364262
2
Properties=species:S:1:pos:R:3:forces:R:3 energy=-1.1197581611246414 pbc="F F F"
F        0.00000000       0.00000000       0.00000000       0.00000000       0.00000000       0.08471604
F        0.00000000       0.00000000       4.88303030       0.00000000       0.00000000      -0.08471604
2
Properties=species:S:1:pos:R:3:forces:R:3 energy=-1.115054949008691 pbc="F F F"
F        0.00000000       0.00000000       0.00000000       0.00000000       0.00000000       0.07526142
F        0.00000000       0.00000000       4.94181818       0.00000000       0.00000000      -0.07526142
2
Properties=species:S:1:pos:R:3:forces:R:3 energy=-1.1108979462017272 pbc="F F F"
F        0.00000000       0.00000000       0.00000000       0.00000000       0.00000000       0.06638953
F        0.00000000       0.00000000       5.00060606       0.00000000       0.00000000      -0.06638953
2
Properties=species:S:1:pos:R:3:forces:R:3 energy=-1.1072069878275617 pbc="F F F"
F        0.00000000       0.00000000       0.00000000       0.00000000       0.00000000       0.05966948
F        0.00000000       0.00000000       5.05939394       0.00000000       0.00000000      -0.05966948
2
Properties=species:S:1:pos:R:3:forces:R:3 energy=-1.1038061968197737 pbc="F F F"
F        0.00000000       0.00000000       0.00000000       0.00000000       0.00000000       0.05681198
F        0.00000000       0.00000000       5.11818182       0.00000000       0.00000000      -0.05681198
2
Properties=species:S:1:pos:R:3:forces:R:3 energy=-1.1004269634362402 pbc="F F F"
F        0.00000000       0.00000000       0.00000000       0.00000000       0.00000000       0.05904722
F        0.00000000       0.00000000       5.17696970       0.00000000       0.00000000      -0.05904722
2
Properties=species:S:1:pos:R:3:forces:R:3 energy=-1.0967656432729878 pbc="F F F"
F        0.00000000       0.00000000       0.00000000       0.00000000       0.00000000       0.06621216
F        0.00000000       0.00000000       5.23575758       0.00000000       0.00000000      -0.06621216
2
Properties=species:S:1:pos:R:3:forces:R:3 energy=-1.092592034426118 pbc="F F F"
F        0.00000000       0.00000000       0.00000000       0.00000000       0.00000000       0.07584408
F        0.00000000       0.00000000       5.29454545       0.00000000       0.00000000      -0.07584408
2
Properties=species:S:1:pos:R:3:forces:R:3 energy=-1.0878902844807172 pbc="F F F"
F        0.00000000       0.00000000       0.00000000       0.00000000       0.00000000       0.08334450
F        0.00000000       0.00000000       5.35333333       0.00000000       0.00000000      -0.08334450
2
Properties=species:S:1:pos:R:3:forces:R:3 energy=-1.0829002539069552 pbc="F F F"
F        0.00000000       0.00000000       0.00000000       0.00000000       0.00000000       0.08570266
F        0.00000000       0.00000000       5.41212121       0.00000000       0.00000000      -0.08570266
2
Properties=species:S:1:pos:R:3:forces:R:3 energy=-1.077812816744764 pbc="F F F"
F        0.00000000       0.00000000       0.00000000       0.00000000       0.00000000       0.08828842
F        0.00000000       0.00000000       5.47090909       0.00000000       0.00000000      -0.08828842
2
Properties=species:S:1:pos:R:3:forces:R:3 energy=-1.0723680056432876 pbc="F F F"
F        0.00000000       0.00000000       0.00000000       0.00000000       0.00000000       0.09769343
F        0.00000000       0.00000000       5.52969697       0.00000000       0.00000000      -0.09769343
2
Properties=species:S:1:pos:R:3:forces:R:3 energy=-1.0664003936304922 pbc="F F F"
F        0.00000000       0.00000000       0.00000000       0.00000000       0.00000000       0.10359439
F        0.00000000       0.00000000       5.58848485       0.00000000       0.00000000      -0.10359439
2
Properties=species:S:1:pos:R:3:forces:R:3 energy=-1.0604078409159046 pbc="F F F"
F        0.00000000       0.00000000       0.00000000       0.00000000       0.00000000       0.09896848
F        0.00000000       0.00000000       5.64727273       0.00000000       0.00000000      -0.09896848
2
Properties=species:S:1:pos:R:3:forces:R:3 energy=-1.0548337352508788 pbc="F F F"
F        0.00000000       0.00000000       0.00000000       0.00000000       0.00000000       0.09117354
F        0.00000000       0.00000000       5.70606061       0.00000000       0.00000000      -0.09117354
2
Properties=species:S:1:pos:R:3:forces:R:3 energy=-1.0494946677829826 pbc="F F F"
F        0.00000000       0.00000000       0.00000000       0.00000000       0.00000000       0.09147061
F        0.00000000       0.00000000       5.76484848       0.00000000       0.00000000      -0.09147061
2
Properties=species:S:1:pos:R:3:forces:R:3 energy=-1.0441934067031482 pbc="F F F"
F        0.00000000       0.00000000       0.00000000       0.00000000       0.00000000       0.08520198
F        0.00000000       0.00000000       5.82363636       0.00000000       0.00000000      -0.08520198
2
Properties=species:S:1:pos:R:3:forces:R:3 energy=-1.0400474839857583 pbc="F F F"
F        0.00000000       0.00000000       0.00000000       0.00000000       0.00000000       0.05283240
F        0.00000000       0.00000000       5.88242424       0.00000000       0.00000000      -0.05283240
2
Properties=species:S:1:pos:R:3:forces:R:3 energy=-1.0380839564690372 pbc="F F F"
F        0.00000000       0.00000000       0.00000000       0.00000000       0.00000000       0.01548287
F        0.00000000       0.00000000       5.94121212       0.00000000       0.00000000      -0.01548287
2
Properties=species:S:1:pos:R:3:forces:R:3 energy=-1.037773965229524 pbc="F F F"
F        0.00000000       0.00000000       0.00000000       0.00000000       0.00000000       0.00013400
F        0.00000000       0.00000000       6.00000000       0.00000000       0.00000000      -0.00013400
