2
Properties=species:S:1:pos:R:3:forces:R:3 energy=3607.0957305355882 pbc="F F F"
Fe       0.00000000       0.00000000       0.00000000       0.00000000       0.00000000  -52424.85156250
Fe       0.00000000       0.00000000       0.18000000       0.00000000       0.00000000   52424.85156250
2
Properties=species:S:1:pos:R:3:forces:R:3 energy=1710.3752715512132 pbc="F F F"
Fe       0.00000000       0.00000000       0.00000000       0.00000000       0.00000000  -18681.29882812
Fe       0.00000000       0.00000000       0.23878788       0.00000000       0.00000000   18681.29882812
2
Properties=species:S:1:pos:R:3:forces:R:3 energy=1002.4339873746936 pbc="F F F"
Fe       0.00000000       0.00000000       0.00000000       0.00000000       0.00000000   -7168.90917969
Fe       0.00000000       0.00000000       0.29757576       0.00000000       0.00000000    7168.90917969
2
Properties=species:S:1:pos:R:3:forces:R:3 energy=745.5116240934436 pbc="F F F"
Fe       0.00000000       0.00000000       0.00000000       0.00000000       0.00000000   -2177.92431641
Fe       0.00000000       0.00000000       0.35636364       0.00000000       0.00000000    2177.92431641
2
Properties=species:S:1:pos:R:3:forces:R:3 energy=693.829190017748 pbc="F F F"
Fe       0.00000000       0.00000000       0.00000000       0.00000000       0.00000000     131.63981628
Fe       0.00000000       0.00000000       0.41515152       0.00000000       0.00000000    -131.63981628
2
Properties=species:S:1:pos:R:3:forces:R:3 energy=730.7743194249506 pbc="F F F"
Fe       0.00000000       0.00000000       0.00000000       0.00000000       0.00000000     880.01495361
Fe       0.00000000       0.00000000       0.47393939       0.00000000       0.00000000    -880.01495361
2
Properties=species:S:1:pos:R:3:forces:R:3 energy=771.1371124127076 pbc="F F F"
Fe       0.00000000       0.00000000       0.00000000       0.00000000       0.00000000     305.71243286
Fe       0.00000000       0.00000000       0.53272727       0.00000000       0.00000000    -305.71243286
2
Properties=species:S:1:pos:R:3:forces:R:3 energy=728.7054107842295 pbc="F F F"
Fe       0.00000000       0.00000000       0.00000000       0.00000000       0.00000000   -1704.62854004
Fe       0.00000000       0.00000000       0.59151515       0.00000000       0.00000000    1704.62854004
2
Properties=species:S:1:pos:R:3:forces:R:3 energy=574.0473908248869 pbc="F F F"
Fe       0.00000000       0.00000000       0.00000000       0.00000000       0.00000000   -2268.73193359
Fe       0.00000000       0.00000000       0.65030303       0.00000000       0.00000000    2268.73193359
2
Properties=species:S:1:pos:R:3:forces:R:3 energy=426.94335649292555 pbc="F F F"
Fe       0.00000000       0.00000000       0.00000000       0.00000000       0.00000000   -2634.03466797
Fe       0.00000000       0.00000000       0.70909091       0.00000000       0.00000000    2634.03466797
2
Properties=species:S:1:pos:R:3:forces:R:3 energy=275.7380648842629 pbc="F F F"
Fe       0.00000000       0.00000000       0.00000000       0.00000000       0.00000000   -2348.31567383
Fe       0.00000000       0.00000000       0.76787879       0.00000000       0.00000000    2348.31567383
2
Properties=species:S:1:pos:R:3:forces:R:3 energy=163.91930898348787 pbc="F F F"
Fe       0.00000000       0.00000000       0.00000000       0.00000000       0.00000000   -1459.60705566
Fe       0.00000000       0.00000000       0.82666667       0.00000000       0.00000000    1459.60705566
2
Properties=species:S:1:pos:R:3:forces:R:3 energy=102.44007648684156 pbc="F F F"
Fe       0.00000000       0.00000000       0.00000000       0.00000000       0.00000000    -771.79467773
Fe       0.00000000       0.00000000       0.88545455       0.00000000       0.00000000     771.79467773
2
Properties=species:S:1:pos:R:3:forces:R:3 energy=65.09506041916624 pbc="F F F"
Fe       0.00000000       0.00000000       0.00000000       0.00000000       0.00000000    -514.71136475
Fe       0.00000000       0.00000000       0.94424242       0.00000000       0.00000000     514.71136475
2
Properties=species:S:1:pos:R:3:forces:R:3 energy=40.88823572669094 pbc="F F F"
Fe       0.00000000       0.00000000       0.00000000       0.00000000       0.00000000    -320.34799194
Fe       0.00000000       0.00000000       1.00303030       0.00000000       0.00000000     320.34799194
2
Properties=species:S:1:pos:R:3:forces:R:3 energy=25.922566855010245 pbc="F F F"
Fe       0.00000000       0.00000000       0.00000000       0.00000000       0.00000000    -199.59162903
Fe       0.00000000       0.00000000       1.06181818       0.00000000       0.00000000     199.59162903
2
Properties=species:S:1:pos:R:3:forces:R:3 energy=16.453156018737747 pbc="F F F"
Fe       0.00000000       0.00000000       0.00000000       0.00000000       0.00000000    -128.91584778
Fe       0.00000000       0.00000000       1.12060606       0.00000000       0.00000000     128.91584778
2
Properties=species:S:1:pos:R:3:forces:R:3 energy=10.168247137693216 pbc="F F F"
Fe       0.00000000       0.00000000       0.00000000       0.00000000       0.00000000     -88.83569336
Fe       0.00000000       0.00000000       1.17939394       0.00000000       0.00000000      88.83569336
2
Properties=species:S:1:pos:R:3:forces:R:3 energy=5.667556007094128 pbc="F F F"
Fe       0.00000000       0.00000000       0.00000000       0.00000000       0.00000000     -66.27844238
Fe       0.00000000       0.00000000       1.23818182       0.00000000       0.00000000      66.27844238
2
Properties=species:S:1:pos:R:3:forces:R:3 energy=2.209138393086723 pbc="F F F"
Fe       0.00000000       0.00000000       0.00000000       0.00000000       0.00000000     -52.38185883
Fe       0.00000000       0.00000000       1.29696970       0.00000000       0.00000000      52.38185883
2
Properties=species:S:1:pos:R:3:forces:R:3 energy=-0.5743952692424816 pbc="F F F"
Fe       0.00000000       0.00000000       0.00000000       0.00000000       0.00000000     -42.76397324
Fe       0.00000000       0.00000000       1.35575758       0.00000000       0.00000000      42.76397324
2
Properties=species:S:1:pos:R:3:forces:R:3 energy=-2.8482842094617995 pbc="F F F"
Fe       0.00000000       0.00000000       0.00000000       0.00000000       0.00000000     -34.69297409
Fe       0.00000000       0.00000000       1.41454545       0.00000000       0.00000000      34.69297409
2
Properties=species:S:1:pos:R:3:forces:R:3 energy=-4.657323798172311 pbc="F F F"
Fe       0.00000000       0.00000000       0.00000000       0.00000000       0.00000000     -26.88687706
Fe       0.00000000       0.00000000       1.47333333       0.00000000       0.00000000      26.88687706
2
Properties=species:S:1:pos:R:3:forces:R:3 energy=-6.02235454716191 pbc="F F F"
Fe       0.00000000       0.00000000       0.00000000       0.00000000       0.00000000     -19.74577904
Fe       0.00000000       0.00000000       1.53212121       0.00000000       0.00000000      19.74577904
2
Properties=species:S:1:pos:R:3:forces:R:3 energy=-7.008244309380994 pbc="F F F"
Fe       0.00000000       0.00000000       0.00000000       0.00000000       0.00000000     -14.06999874
Fe       0.00000000       0.00000000       1.59090909       0.00000000       0.00000000      14.06999874
2
Properties=species:S:1:pos:R:3:forces:R:3 energy=-7.707942380206274 pbc="F F F"
Fe       0.00000000       0.00000000       0.00000000       0.00000000       0.00000000      -9.97671604
Fe       0.00000000       0.00000000       1.64969697       0.00000000       0.00000000       9.97671604
2
Properties=species:S:1:pos:R:3:forces:R:3 energy=-8.205818002413041 pbc="F F F"
Fe       0.00000000       0.00000000       0.00000000       0.00000000       0.00000000      -7.13586378
Fe       0.00000000       0.00000000       1.70848485       0.00000000       0.00000000       7.13586378
2
Properties=species:S:1:pos:R:3:forces:R:3 energy=-8.563901827189612 pbc="F F F"
Fe       0.00000000       0.00000000       0.00000000       0.00000000       0.00000000      -5.16388226
Fe       0.00000000       0.00000000       1.76727273       0.00000000       0.00000000       5.16388226
2
Properties=species:S:1:pos:R:3:forces:R:3 energy=-8.824145415683025 pbc="F F F"
Fe       0.00000000       0.00000000       0.00000000       0.00000000       0.00000000      -3.76491928
Fe       0.00000000       0.00000000       1.82606061       0.00000000       0.00000000       3.76491928
2
Properties=species:S:1:pos:R:3:forces:R:3 energy=-9.01345757872886 pbc="F F F"
Fe       0.00000000       0.00000000       0.00000000       0.00000000       0.00000000      -2.71984768
Fe       0.00000000       0.00000000       1.88484848       0.00000000       0.00000000       2.71984768
2
Properties=species:S:1:pos:R:3:forces:R:3 energy=-9.147816856426394 pbc="F F F"
Fe       0.00000000       0.00000000       0.00000000       0.00000000       0.00000000      -1.87485242
Fe       0.00000000       0.00000000       1.94363636       0.00000000       0.00000000       1.87485242
2
Properties=species:S:1:pos:R:3:forces:R:3 energy=-9.235928066866801 pbc="F F F"
Fe       0.00000000       0.00000000       0.00000000       0.00000000       0.00000000      -1.13535261
Fe       0.00000000       0.00000000       2.00242424       0.00000000       0.00000000       1.13535261
2
Properties=species:S:1:pos:R:3:forces:R:3 energy=-9.282521077945175 pbc="F F F"
Fe       0.00000000       0.00000000       0.00000000       0.00000000       0.00000000      -0.45919791
Fe       0.00000000       0.00000000       2.06121212       0.00000000       0.00000000       0.45919791
2
Properties=species:S:1:pos:R:3:forces:R:3 energy=-9.291091967809445 pbc="F F F"
Fe       0.00000000       0.00000000       0.00000000       0.00000000       0.00000000       0.15636300
Fe       0.00000000       0.00000000       2.12000000       0.00000000       0.00000000      -0.15636300
2
Properties=species:S:1:pos:R:3:forces:R:3 energy=-9.265666576788567 pbc="F F F"
Fe       0.00000000       0.00000000       0.00000000       0.00000000       0.00000000       0.69384742
Fe       0.00000000       0.00000000       2.17878788       0.00000000       0.00000000      -0.69384742
2
Properties=species:S:1:pos:R:3:forces:R:3 energy=-9.211438722668268 pbc="F F F"
Fe       0.00000000       0.00000000       0.00000000       0.00000000       0.00000000       1.13329935
Fe       0.00000000       0.00000000       2.23757576       0.00000000       0.00000000      -1.13329935
2
Properties=species:S:1:pos:R:3:forces:R:3 energy=-9.134586723598824 pbc="F F F"
Fe       0.00000000       0.00000000       0.00000000       0.00000000       0.00000000       1.46240532
Fe       0.00000000       0.00000000       2.29636364       0.00000000       0.00000000      -1.46240532
2
Properties=species:S:1:pos:R:3:forces:R:3 energy=-9.041714447454892 pbc="F F F"
Fe       0.00000000       0.00000000       0.00000000       0.00000000       0.00000000       1.67854881
Fe       0.00000000       0.00000000       2.35515152       0.00000000       0.00000000      -1.67854881
2
Properties=species:S:1:pos:R:3:forces:R:3 energy=-8.939354189178683 pbc="F F F"
Fe       0.00000000       0.00000000       0.00000000       0.00000000       0.00000000       1.78642058
Fe       0.00000000       0.00000000       2.41393939       0.00000000       0.00000000      -1.78642058
2
Properties=species:S:1:pos:R:3:forces:R:3 energy=-8.833602644796123 pbc="F F F"
Fe       0.00000000       0.00000000       0.00000000       0.00000000       0.00000000       1.79627991
Fe       0.00000000       0.00000000       2.47272727       0.00000000       0.00000000      -1.79627991
2
Properties=species:S:1:pos:R:3:forces:R:3 energy=-8.729591759158902 pbc="F F F"
Fe       0.00000000       0.00000000       0.00000000       0.00000000       0.00000000       1.73448992
Fe       0.00000000       0.00000000       2.53151515       0.00000000       0.00000000      -1.73448992
2
Properties=species:S:1:pos:R:3:forces:R:3 energy=-8.629788466865246 pbc="F F F"
Fe       0.00000000       0.00000000       0.00000000       0.00000000       0.00000000       1.66646957
Fe       0.00000000       0.00000000       2.59030303       0.00000000       0.00000000      -1.66646957
2
Properties=species:S:1:pos:R:3:forces:R:3 energy=-8.53278444812892 pbc="F F F"
Fe       0.00000000       0.00000000       0.00000000       0.00000000       0.00000000       1.63837147
Fe       0.00000000       0.00000000       2.64909091       0.00000000       0.00000000      -1.63837147
2
Properties=species:S:1:pos:R:3:forces:R:3 energy=-8.437236350017486 pbc="F F F"
Fe       0.00000000       0.00000000       0.00000000       0.00000000       0.00000000       1.60761857
Fe       0.00000000       0.00000000       2.70787879       0.00000000       0.00000000      -1.60761857
2
Properties=species:S:1:pos:R:3:forces:R:3 energy=-8.344379883455217 pbc="F F F"
Fe       0.00000000       0.00000000       0.00000000       0.00000000       0.00000000       1.54698074
Fe       0.00000000       0.00000000       2.76666667       0.00000000       0.00000000      -1.54698074
2
Properties=species:S:1:pos:R:3:forces:R:3 energy=-8.255712216336208 pbc="F F F"
Fe       0.00000000       0.00000000       0.00000000       0.00000000       0.00000000       1.46763897
Fe       0.00000000       0.00000000       2.82545455       0.00000000       0.00000000      -1.46763897
2
Properties=species:S:1:pos:R:3:forces:R:3 energy=-8.171956165287803 pbc="F F F"
Fe       0.00000000       0.00000000       0.00000000       0.00000000       0.00000000       1.38124025
Fe       0.00000000       0.00000000       2.88424242       0.00000000       0.00000000      -1.38124025
2
Properties=species:S:1:pos:R:3:forces:R:3 energy=-8.093331267810266 pbc="F F F"
Fe       0.00000000       0.00000000       0.00000000       0.00000000       0.00000000       1.29379404
Fe       0.00000000       0.00000000       2.94303030       0.00000000       0.00000000      -1.29379404
2
Properties=species:S:1:pos:R:3:forces:R:3 energy=-8.019782352683658 pbc="F F F"
Fe       0.00000000       0.00000000       0.00000000       0.00000000       0.00000000       1.20911384
Fe       0.00000000       0.00000000       3.00181818       0.00000000       0.00000000      -1.20911384
2
Properties=species:S:1:pos:R:3:forces:R:3 energy=-7.951058902812855 pbc="F F F"
Fe       0.00000000       0.00000000       0.00000000       0.00000000       0.00000000       1.12999344
Fe       0.00000000       0.00000000       3.06060606       0.00000000       0.00000000      -1.12999344
2
Properties=species:S:1:pos:R:3:forces:R:3 energy=-7.886783164166825 pbc="F F F"
Fe       0.00000000       0.00000000       0.00000000       0.00000000       0.00000000       1.05793273
Fe       0.00000000       0.00000000       3.11939394       0.00000000       0.00000000      -1.05793273
2
Properties=species:S:1:pos:R:3:forces:R:3 energy=-7.8265315913074875 pbc="F F F"
Fe       0.00000000       0.00000000       0.00000000       0.00000000       0.00000000       0.99295992
Fe       0.00000000       0.00000000       3.17818182       0.00000000       0.00000000      -0.99295992
2
Properties=species:S:1:pos:R:3:forces:R:3 energy=-7.769917780065808 pbc="F F F"
Fe       0.00000000       0.00000000       0.00000000       0.00000000       0.00000000       0.93399233
Fe       0.00000000       0.00000000       3.23696970       0.00000000       0.00000000      -0.93399233
2
Properties=species:S:1:pos:R:3:forces:R:3 energy=-7.716629307388199 pbc="F F F"
Fe       0.00000000       0.00000000       0.00000000       0.00000000       0.00000000       0.87954104
Fe       0.00000000       0.00000000       3.29575758       0.00000000       0.00000000      -0.87954104
2
Properties=species:S:1:pos:R:3:forces:R:3 energy=-7.666441475586894 pbc="F F F"
Fe       0.00000000       0.00000000       0.00000000       0.00000000       0.00000000       0.82832104
Fe       0.00000000       0.00000000       3.35454545       0.00000000       0.00000000      -0.82832104
2
Properties=species:S:1:pos:R:3:forces:R:3 energy=-7.619191314379441 pbc="F F F"
Fe       0.00000000       0.00000000       0.00000000       0.00000000       0.00000000       0.77953362
Fe       0.00000000       0.00000000       3.41333333       0.00000000       0.00000000      -0.77953362
2
Properties=species:S:1:pos:R:3:forces:R:3 energy=-7.574746687843726 pbc="F F F"
Fe       0.00000000       0.00000000       0.00000000       0.00000000       0.00000000       0.73280871
Fe       0.00000000       0.00000000       3.47212121       0.00000000       0.00000000      -0.73280871
2
Properties=species:S:1:pos:R:3:forces:R:3 energy=-7.532993088697366 pbc="F F F"
Fe       0.00000000       0.00000000       0.00000000       0.00000000       0.00000000       0.68799770
Fe       0.00000000       0.00000000       3.53090909       0.00000000       0.00000000      -0.68799770
2
Properties=species:S:1:pos:R:3:forces:R:3 energy=-7.493820280521631 pbc="F F F"
Fe       0.00000000       0.00000000       0.00000000       0.00000000       0.00000000       0.64495885
Fe       0.00000000       0.00000000       3.58969697       0.00000000       0.00000000      -0.64495885
2
Properties=species:S:1:pos:R:3:forces:R:3 energy=-7.457130619405042 pbc="F F F"
Fe       0.00000000       0.00000000       0.00000000       0.00000000       0.00000000       0.60348576
Fe       0.00000000       0.00000000       3.64848485       0.00000000       0.00000000      -0.60348576
2
Properties=species:S:1:pos:R:3:forces:R:3 energy=-7.422840357741962 pbc="F F F"
Fe       0.00000000       0.00000000       0.00000000       0.00000000       0.00000000       0.56330252
Fe       0.00000000       0.00000000       3.70727273       0.00000000       0.00000000      -0.56330252
2
Properties=species:S:1:pos:R:3:forces:R:3 energy=-7.390879420821202 pbc="F F F"
Fe       0.00000000       0.00000000       0.00000000       0.00000000       0.00000000       0.52415913
Fe       0.00000000       0.00000000       3.76606061       0.00000000       0.00000000      -0.52415913
2
Properties=species:S:1:pos:R:3:forces:R:3 energy=-7.3611941538073795 pbc="F F F"
Fe       0.00000000       0.00000000       0.00000000       0.00000000       0.00000000       0.48591319
Fe       0.00000000       0.00000000       3.82484848       0.00000000       0.00000000      -0.48591319
2
Properties=species:S:1:pos:R:3:forces:R:3 energy=-7.333730222127489 pbc="F F F"
Fe       0.00000000       0.00000000       0.00000000       0.00000000       0.00000000       0.44856906
Fe       0.00000000       0.00000000       3.88363636       0.00000000       0.00000000      -0.44856906
2
Properties=species:S:1:pos:R:3:forces:R:3 energy=-7.30843218215107 pbc="F F F"
Fe       0.00000000       0.00000000       0.00000000       0.00000000       0.00000000       0.41229951
Fe       0.00000000       0.00000000       3.94242424       0.00000000       0.00000000      -0.41229951
2
Properties=species:S:1:pos:R:3:forces:R:3 energy=-7.28522765369715 pbc="F F F"
Fe       0.00000000       0.00000000       0.00000000       0.00000000       0.00000000       0.37741017
Fe       0.00000000       0.00000000       4.00121212       0.00000000       0.00000000      -0.37741017
2
Properties=species:S:1:pos:R:3:forces:R:3 energy=-7.264023495833507 pbc="F F F"
Fe       0.00000000       0.00000000       0.00000000       0.00000000       0.00000000       0.34428850
Fe       0.00000000       0.00000000       4.06000000       0.00000000       0.00000000      -0.34428850
2
Properties=species:S:1:pos:R:3:forces:R:3 energy=-7.244704754999872 pbc="F F F"
Fe       0.00000000       0.00000000       0.00000000       0.00000000       0.00000000       0.31334382
Fe       0.00000000       0.00000000       4.11878788       0.00000000       0.00000000      -0.31334382
2
Properties=species:S:1:pos:R:3:forces:R:3 energy=-7.2271317786424 pbc="F F F"
Fe       0.00000000       0.00000000       0.00000000       0.00000000       0.00000000       0.28493527
Fe       0.00000000       0.00000000       4.17757576       0.00000000       0.00000000      -0.28493527
2
Properties=species:S:1:pos:R:3:forces:R:3 energy=-7.211148121872562 pbc="F F F"
Fe       0.00000000       0.00000000       0.00000000       0.00000000       0.00000000       0.25931904
Fe       0.00000000       0.00000000       4.23636364       0.00000000       0.00000000      -0.25931904
2
Properties=species:S:1:pos:R:3:forces:R:3 energy=-7.19658474396691 pbc="F F F"
Fe       0.00000000       0.00000000       0.00000000       0.00000000       0.00000000       0.23659931
Fe       0.00000000       0.00000000       4.29515152       0.00000000       0.00000000      -0.23659931
2
Properties=species:S:1:pos:R:3:forces:R:3 energy=-7.183274269132305 pbc="F F F"
Fe       0.00000000       0.00000000       0.00000000       0.00000000       0.00000000       0.21671717
Fe       0.00000000       0.00000000       4.35393939       0.00000000       0.00000000      -0.21671717
2
Properties=species:S:1:pos:R:3:forces:R:3 energy=-7.17105354658577 pbc="F F F"
Fe       0.00000000       0.00000000       0.00000000       0.00000000       0.00000000       0.19944462
Fe       0.00000000       0.00000000       4.41272727       0.00000000       0.00000000      -0.19944462
2
Properties=species:S:1:pos:R:3:forces:R:3 energy=-7.159779825004 pbc="F F F"
Fe       0.00000000       0.00000000       0.00000000       0.00000000       0.00000000       0.18442862
Fe       0.00000000       0.00000000       4.47151515       0.00000000       0.00000000      -0.18442862
2
Properties=species:S:1:pos:R:3:forces:R:3 energy=-7.149333509008177 pbc="F F F"
Fe       0.00000000       0.00000000       0.00000000       0.00000000       0.00000000       0.17122717
Fe       0.00000000       0.00000000       4.53030303       0.00000000       0.00000000      -0.17122717
2
Properties=species:S:1:pos:R:3:forces:R:3 energy=-7.139621793295381 pbc="F F F"
Fe       0.00000000       0.00000000       0.00000000       0.00000000       0.00000000       0.15935956
Fe       0.00000000       0.00000000       4.58909091       0.00000000       0.00000000      -0.15935956
2
Properties=species:S:1:pos:R:3:forces:R:3 energy=-7.1305799886119265 pbc="F F F"
Fe       0.00000000       0.00000000       0.00000000       0.00000000       0.00000000       0.14835185
Fe       0.00000000       0.00000000       4.64787879       0.00000000       0.00000000      -0.14835185
2
Properties=species:S:1:pos:R:3:forces:R:3 energy=-7.122170583918157 pbc="F F F"
Fe       0.00000000       0.00000000       0.00000000       0.00000000       0.00000000       0.13777559
Fe       0.00000000       0.00000000       4.70666667       0.00000000       0.00000000      -0.13777559
2
Properties=species:S:1:pos:R:3:forces:R:3 energy=-7.114378774288167 pbc="F F F"
Fe       0.00000000       0.00000000       0.00000000       0.00000000       0.00000000       0.12729663
Fe       0.00000000       0.00000000       4.76545455       0.00000000       0.00000000      -0.12729663
2
Properties=species:S:1:pos:R:3:forces:R:3 energy=-7.107205365373217 pbc="F F F"
Fe       0.00000000       0.00000000       0.00000000       0.00000000       0.00000000       0.11671836
Fe       0.00000000       0.00000000       4.82424242       0.00000000       0.00000000      -0.11671836
2
Properties=species:S:1:pos:R:3:forces:R:3 energy=-7.100658145983381 pbc="F F F"
Fe       0.00000000       0.00000000       0.00000000       0.00000000       0.00000000       0.10603523
Fe       0.00000000       0.00000000       4.88303030       0.00000000       0.00000000      -0.10603523
2
Properties=species:S:1:pos:R:3:forces:R:3 energy=-7.094736581781155 pbc="F F F"
Fe       0.00000000       0.00000000       0.00000000       0.00000000       0.00000000       0.09546418
Fe       0.00000000       0.00000000       4.94181818       0.00000000       0.00000000      -0.09546418
2
Properties=species:S:1:pos:R:3:forces:R:3 energy=-7.0894228314031755 pbc="F F F"
Fe       0.00000000       0.00000000       0.00000000       0.00000000       0.00000000       0.08543821
Fe       0.00000000       0.00000000       5.00060606       0.00000000       0.00000000      -0.08543821
2
Properties=species:S:1:pos:R:3:forces:R:3 energy=-7.0846689288777505 pbc="F F F"
Fe       0.00000000       0.00000000       0.00000000       0.00000000       0.00000000       0.07651581
Fe       0.00000000       0.00000000       5.05939394       0.00000000       0.00000000      -0.07651581
2
Properties=species:S:1:pos:R:3:forces:R:3 energy=-7.080394831926719 pbc="F F F"
Fe       0.00000000       0.00000000       0.00000000       0.00000000       0.00000000       0.06920080
Fe       0.00000000       0.00000000       5.11818182       0.00000000       0.00000000      -0.06920080
2
Properties=species:S:1:pos:R:3:forces:R:3 energy=-7.0764971206598 pbc="F F F"
Fe       0.00000000       0.00000000       0.00000000       0.00000000       0.00000000       0.06369019
Fe       0.00000000       0.00000000       5.17696970       0.00000000       0.00000000      -0.06369019
2
Properties=species:S:1:pos:R:3:forces:R:3 energy=-7.072877628394937 pbc="F F F"
Fe       0.00000000       0.00000000       0.00000000       0.00000000       0.00000000       0.05963149
Fe       0.00000000       0.00000000       5.23575758       0.00000000       0.00000000      -0.05963149
2
Properties=species:S:1:pos:R:3:forces:R:3 energy=-7.069475952116249 pbc="F F F"
Fe       0.00000000       0.00000000       0.00000000       0.00000000       0.00000000       0.05607711
Fe       0.00000000       0.00000000       5.29454545       0.00000000       0.00000000      -0.05607711
2
Properties=species:S:1:pos:R:3:forces:R:3 energy=-7.066297151794805 pbc="F F F"
Fe       0.00000000       0.00000000       0.00000000       0.00000000       0.00000000       0.05190112
Fe       0.00000000       0.00000000       5.35333333       0.00000000       0.00000000      -0.05190112
2
Properties=species:S:1:pos:R:3:forces:R:3 energy=-7.0633922349111815 pbc="F F F"
Fe       0.00000000       0.00000000       0.00000000       0.00000000       0.00000000       0.04683931
Fe       0.00000000       0.00000000       5.41212121       0.00000000       0.00000000      -0.04683931
2
Properties=species:S:1:pos:R:3:forces:R:3 energy=-7.060783852222163 pbc="F F F"
Fe       0.00000000       0.00000000       0.00000000       0.00000000       0.00000000       0.04204903
Fe       0.00000000       0.00000000       5.47090909       0.00000000       0.00000000      -0.04204903
2
Properties=species:S:1:pos:R:3:forces:R:3 energy=-7.058435323936296 pbc="F F F"
Fe       0.00000000       0.00000000       0.00000000       0.00000000       0.00000000       0.03782306
Fe       0.00000000       0.00000000       5.52969697       0.00000000       0.00000000      -0.03782306
2
Properties=species:S:1:pos:R:3:forces:R:3 energy=-7.056356069827101 pbc="F F F"
Fe       0.00000000       0.00000000       0.00000000       0.00000000       0.00000000       0.03271445
Fe       0.00000000       0.00000000       5.58848485       0.00000000       0.00000000      -0.03271445
2
Properties=species:S:1:pos:R:3:forces:R:3 energy=-7.054598345816782 pbc="F F F"
Fe       0.00000000       0.00000000       0.00000000       0.00000000       0.00000000       0.02715345
Fe       0.00000000       0.00000000       5.64727273       0.00000000       0.00000000      -0.02715345
2
Properties=species:S:1:pos:R:3:forces:R:3 energy=-7.0531423008785215 pbc="F F F"
Fe       0.00000000       0.00000000       0.00000000       0.00000000       0.00000000       0.02268459
Fe       0.00000000       0.00000000       5.70606061       0.00000000       0.00000000      -0.02268459
2
Properties=species:S:1:pos:R:3:forces:R:3 energy=-7.051889832798362 pbc="F F F"
Fe       0.00000000       0.00000000       0.00000000       0.00000000       0.00000000       0.02012191
Fe       0.00000000       0.00000000       5.76484848       0.00000000       0.00000000      -0.02012191
2
Properties=species:S:1:pos:R:3:forces:R:3 energy=-7.050778144318983 pbc="F F F"
Fe       0.00000000       0.00000000       0.00000000       0.00000000       0.00000000       0.01750102
Fe       0.00000000       0.00000000       5.82363636       0.00000000       0.00000000      -0.01750102
2
Properties=species:S:1:pos:R:3:forces:R:3 energy=-7.049862174195542 pbc="F F F"
Fe       0.00000000       0.00000000       0.00000000       0.00000000       0.00000000       0.01357483
Fe       0.00000000       0.00000000       5.88242424       0.00000000       0.00000000      -0.01357483
2
Properties=species:S:1:pos:R:3:forces:R:3 energy=-7.049173532592397 pbc="F F F"
Fe       0.00000000       0.00000000       0.00000000       0.00000000       0.00000000       0.01003712
Fe       0.00000000       0.00000000       5.94121212       0.00000000       0.00000000      -0.01003712
2
Properties=species:S:1:pos:R:3:forces:R:3 energy=-7.048644203178025 pbc="F F F"
Fe       0.00000000       0.00000000       0.00000000       0.00000000       0.00000000       0.00836448
Fe       0.00000000       0.00000000       6.00000000       0.00000000       0.00000000      -0.00836448
