2
Properties=species:S:1:pos:R:3:forces:R:3 energy=20667.632620485285 pbc="F F F"
Ga       0.00000000       0.00000000       0.00000000       0.00000000       0.00000000 -449993.09375000
Ga       0.00000000       0.00000000       0.10000000       0.00000000       0.00000000  449993.09375000
2
Properties=species:S:1:pos:R:3:forces:R:3 energy=7095.619925172783 pbc="F F F"
Ga       0.00000000       0.00000000       0.00000000       0.00000000       0.00000000 -104513.62500000
Ga       0.00000000       0.00000000       0.15959596       0.00000000       0.00000000  104513.62500000
2
Properties=species:S:1:pos:R:3:forces:R:3 energy=3417.2131868915335 pbc="F F F"
Ga       0.00000000       0.00000000       0.00000000       0.00000000       0.00000000  -34290.96093750
Ga       0.00000000       0.00000000       0.21919192       0.00000000       0.00000000   34290.96093750
2
Properties=species:S:1:pos:R:3:forces:R:3 energy=2095.3872591571585 pbc="F F F"
Ga       0.00000000       0.00000000       0.00000000       0.00000000       0.00000000  -13736.21191406
Ga       0.00000000       0.00000000       0.27878788       0.00000000       0.00000000   13736.21191406
2
Properties=species:S:1:pos:R:3:forces:R:3 energy=1533.1343294728263 pbc="F F F"
Ga       0.00000000       0.00000000       0.00000000       0.00000000       0.00000000   -6270.10693359
Ga       0.00000000       0.00000000       0.33838384       0.00000000       0.00000000    6270.10693359
2
Properties=species:S:1:pos:R:3:forces:R:3 energy=1258.3656527213495 pbc="F F F"
Ga       0.00000000       0.00000000       0.00000000       0.00000000       0.00000000   -3496.27001953
Ga       0.00000000       0.00000000       0.39797980       0.00000000       0.00000000    3496.27001953
2
Properties=species:S:1:pos:R:3:forces:R:3 energy=1092.27898280581 pbc="F F F"
Ga       0.00000000       0.00000000       0.00000000       0.00000000       0.00000000   -2277.87841797
Ga       0.00000000       0.00000000       0.45757576       0.00000000       0.00000000    2277.87841797
2
Properties=species:S:1:pos:R:3:forces:R:3 energy=970.2695223755983 pbc="F F F"
Ga       0.00000000       0.00000000       0.00000000       0.00000000       0.00000000   -1916.10998535
Ga       0.00000000       0.00000000       0.51717172       0.00000000       0.00000000    1916.10998535
2
Properties=species:S:1:pos:R:3:forces:R:3 energy=852.0669467236827 pbc="F F F"
Ga       0.00000000       0.00000000       0.00000000       0.00000000       0.00000000   -2084.86425781
Ga       0.00000000       0.00000000       0.57676768       0.00000000       0.00000000    2084.86425781
2
Properties=species:S:1:pos:R:3:forces:R:3 energy=717.1815097689848 pbc="F F F"
Ga       0.00000000       0.00000000       0.00000000       0.00000000       0.00000000   -2487.62182617
Ga       0.00000000       0.00000000       0.63636364       0.00000000       0.00000000    2487.62182617
2
Properties=species:S:1:pos:R:3:forces:R:3 energy=555.0094517585507 pbc="F F F"
Ga       0.00000000       0.00000000       0.00000000       0.00000000       0.00000000   -2872.57031250
Ga       0.00000000       0.00000000       0.69595960       0.00000000       0.00000000    2872.57031250
2
Properties=species:S:1:pos:R:3:forces:R:3 energy=397.1417150815286 pbc="F F F"
Ga       0.00000000       0.00000000       0.00000000       0.00000000       0.00000000   -2289.60156250
Ga       0.00000000       0.00000000       0.75555556       0.00000000       0.00000000    2289.60156250
2
Properties=species:S:1:pos:R:3:forces:R:3 energy=277.8317787639996 pbc="F F F"
Ga       0.00000000       0.00000000       0.00000000       0.00000000       0.00000000   -1745.46679688
Ga       0.00000000       0.00000000       0.81515152       0.00000000       0.00000000    1745.46679688
2
Properties=species:S:1:pos:R:3:forces:R:3 energy=189.9230418823255 pbc="F F F"
Ga       0.00000000       0.00000000       0.00000000       0.00000000       0.00000000   -1199.69091797
Ga       0.00000000       0.00000000       0.87474747       0.00000000       0.00000000    1199.69091797
2
Properties=species:S:1:pos:R:3:forces:R:3 energy=131.52716828337614 pbc="F F F"
Ga       0.00000000       0.00000000       0.00000000       0.00000000       0.00000000    -791.78198242
Ga       0.00000000       0.00000000       0.93434343       0.00000000       0.00000000     791.78198242
2
Properties=species:S:1:pos:R:3:forces:R:3 energy=92.4588400151692 pbc="F F F"
Ga       0.00000000       0.00000000       0.00000000       0.00000000       0.00000000    -541.33239746
Ga       0.00000000       0.00000000       0.99393939       0.00000000       0.00000000     541.33239746
2
Properties=species:S:1:pos:R:3:forces:R:3 energy=65.27079149705413 pbc="F F F"
Ga       0.00000000       0.00000000       0.00000000       0.00000000       0.00000000    -378.89788818
Ga       0.00000000       0.00000000       1.05353535       0.00000000       0.00000000     378.89788818
2
Properties=species:S:1:pos:R:3:forces:R:3 energy=46.63642748599091 pbc="F F F"
Ga       0.00000000       0.00000000       0.00000000       0.00000000       0.00000000    -251.89836121
Ga       0.00000000       0.00000000       1.11313131       0.00000000       0.00000000     251.89836121
2
Properties=species:S:1:pos:R:3:forces:R:3 energy=34.52073675383206 pbc="F F F"
Ga       0.00000000       0.00000000       0.00000000       0.00000000       0.00000000    -161.38375854
Ga       0.00000000       0.00000000       1.17272727       0.00000000       0.00000000     161.38375854
2
Properties=species:S:1:pos:R:3:forces:R:3 energy=26.622100816394642 pbc="F F F"
Ga       0.00000000       0.00000000       0.00000000       0.00000000       0.00000000    -109.32051086
Ga       0.00000000       0.00000000       1.23232323       0.00000000       0.00000000     109.32051086
2
Properties=species:S:1:pos:R:3:forces:R:3 energy=20.99337621085798 pbc="F F F"
Ga       0.00000000       0.00000000       0.00000000       0.00000000       0.00000000     -82.36290741
Ga       0.00000000       0.00000000       1.29191919       0.00000000       0.00000000      82.36290741
2
Properties=species:S:1:pos:R:3:forces:R:3 energy=16.587724294055526 pbc="F F F"
Ga       0.00000000       0.00000000       0.00000000       0.00000000       0.00000000     -66.64398956
Ga       0.00000000       0.00000000       1.35151515       0.00000000       0.00000000      66.64398956
2
Properties=species:S:1:pos:R:3:forces:R:3 energy=12.956717989214958 pbc="F F F"
Ga       0.00000000       0.00000000       0.00000000       0.00000000       0.00000000     -55.71944046
Ga       0.00000000       0.00000000       1.41111111       0.00000000       0.00000000      55.71944046
2
Properties=species:S:1:pos:R:3:forces:R:3 energy=9.908091003165273 pbc="F F F"
Ga       0.00000000       0.00000000       0.00000000       0.00000000       0.00000000     -46.77543640
Ga       0.00000000       0.00000000       1.47070707       0.00000000       0.00000000      46.77543640
2
Properties=species:S:1:pos:R:3:forces:R:3 energy=7.365935809257978 pbc="F F F"
Ga       0.00000000       0.00000000       0.00000000       0.00000000       0.00000000     -38.65945435
Ga       0.00000000       0.00000000       1.53030303       0.00000000       0.00000000      38.65945435
2
Properties=species:S:1:pos:R:3:forces:R:3 energy=5.282646603031054 pbc="F F F"
Ga       0.00000000       0.00000000       0.00000000       0.00000000       0.00000000     -31.42676735
Ga       0.00000000       0.00000000       1.58989899       0.00000000       0.00000000      31.42676735
2
Properties=species:S:1:pos:R:3:forces:R:3 energy=3.598295700709444 pbc="F F F"
Ga       0.00000000       0.00000000       0.00000000       0.00000000       0.00000000     -25.28214836
Ga       0.00000000       0.00000000       1.64949495       0.00000000       0.00000000      25.28214836
2
Properties=species:S:1:pos:R:3:forces:R:3 energy=2.2484788712768777 pbc="F F F"
Ga       0.00000000       0.00000000       0.00000000       0.00000000       0.00000000     -20.17840576
Ga       0.00000000       0.00000000       1.70909091       0.00000000       0.00000000      20.17840576
2
Properties=species:S:1:pos:R:3:forces:R:3 energy=1.1755384174177452 pbc="F F F"
Ga       0.00000000       0.00000000       0.00000000       0.00000000       0.00000000     -15.96483231
Ga       0.00000000       0.00000000       1.76868687       0.00000000       0.00000000      15.96483231
2
Properties=species:S:1:pos:R:3:forces:R:3 energy=0.33047310357272003 pbc="F F F"
Ga       0.00000000       0.00000000       0.00000000       0.00000000       0.00000000     -12.51396370
Ga       0.00000000       0.00000000       1.82828283       0.00000000       0.00000000      12.51396370
2
Properties=species:S:1:pos:R:3:forces:R:3 energy=-0.32940575411945117 pbc="F F F"
Ga       0.00000000       0.00000000       0.00000000       0.00000000       0.00000000      -9.73632622
Ga       0.00000000       0.00000000       1.88787879       0.00000000       0.00000000       9.73632622
2
Properties=species:S:1:pos:R:3:forces:R:3 energy=-0.8416317371635766 pbc="F F F"
Ga       0.00000000       0.00000000       0.00000000       0.00000000       0.00000000      -7.54269028
Ga       0.00000000       0.00000000       1.94747475       0.00000000       0.00000000       7.54269028
2
Properties=species:S:1:pos:R:3:forces:R:3 energy=-1.237984992276962 pbc="F F F"
Ga       0.00000000       0.00000000       0.00000000       0.00000000       0.00000000      -5.82990408
Ga       0.00000000       0.00000000       2.00707071       0.00000000       0.00000000       5.82990408
2
Properties=species:S:1:pos:R:3:forces:R:3 energy=-1.5439593258513813 pbc="F F F"
Ga       0.00000000       0.00000000       0.00000000       0.00000000       0.00000000      -4.49274683
Ga       0.00000000       0.00000000       2.06666667       0.00000000       0.00000000       4.49274683
2
Properties=species:S:1:pos:R:3:forces:R:3 energy=-1.7790829276271245 pbc="F F F"
Ga       0.00000000       0.00000000       0.00000000       0.00000000       0.00000000      -3.43810511
Ga       0.00000000       0.00000000       2.12626263       0.00000000       0.00000000       3.43810511
2
Properties=species:S:1:pos:R:3:forces:R:3 energy=-1.957892983830757 pbc="F F F"
Ga       0.00000000       0.00000000       0.00000000       0.00000000       0.00000000      -2.59239793
Ga       0.00000000       0.00000000       2.18585859       0.00000000       0.00000000       2.59239793
2
Properties=species:S:1:pos:R:3:forces:R:3 energy=-2.091154032128326 pbc="F F F"
Ga       0.00000000       0.00000000       0.00000000       0.00000000       0.00000000      -1.90213680
Ga       0.00000000       0.00000000       2.24545455       0.00000000       0.00000000       1.90213680
2
Properties=species:S:1:pos:R:3:forces:R:3 energy=-2.1869579005723523 pbc="F F F"
Ga       0.00000000       0.00000000       0.00000000       0.00000000       0.00000000      -1.33037996
Ga       0.00000000       0.00000000       2.30505051       0.00000000       0.00000000       1.33037996
2
Properties=species:S:1:pos:R:3:forces:R:3 energy=-2.2515754001229538 pbc="F F F"
Ga       0.00000000       0.00000000       0.00000000       0.00000000       0.00000000      -0.85207814
Ga       0.00000000       0.00000000       2.36464646       0.00000000       0.00000000       0.85207814
2
Properties=species:S:1:pos:R:3:forces:R:3 energy=-2.290029493247391 pbc="F F F"
Ga       0.00000000       0.00000000       0.00000000       0.00000000       0.00000000      -0.44999143
Ga       0.00000000       0.00000000       2.42424242       0.00000000       0.00000000       0.44999143
2
Properties=species:S:1:pos:R:3:forces:R:3 energy=-2.306478406898071 pbc="F F F"
Ga       0.00000000       0.00000000       0.00000000       0.00000000       0.00000000      -0.11183598
Ga       0.00000000       0.00000000       2.48383838       0.00000000       0.00000000       0.11183598
2
Properties=species:S:1:pos:R:3:forces:R:3 energy=-2.304450505819117 pbc="F F F"
Ga       0.00000000       0.00000000       0.00000000       0.00000000       0.00000000       0.17134650
Ga       0.00000000       0.00000000       2.54343434       0.00000000       0.00000000      -0.17134650
2
Properties=species:S:1:pos:R:3:forces:R:3 energy=-2.287017725055601 pbc="F F F"
Ga       0.00000000       0.00000000       0.00000000       0.00000000       0.00000000       0.40604672
Ga       0.00000000       0.00000000       2.60303030       0.00000000       0.00000000      -0.40604672
2
Properties=species:S:1:pos:R:3:forces:R:3 energy=-2.2569217872649348 pbc="F F F"
Ga       0.00000000       0.00000000       0.00000000       0.00000000       0.00000000       0.59694630
Ga       0.00000000       0.00000000       2.66262626       0.00000000       0.00000000      -0.59694630
2
Properties=species:S:1:pos:R:3:forces:R:3 energy=-2.216666932921986 pbc="F F F"
Ga       0.00000000       0.00000000       0.00000000       0.00000000       0.00000000       0.74753958
Ga       0.00000000       0.00000000       2.72222222       0.00000000       0.00000000      -0.74753958
2
Properties=species:S:1:pos:R:3:forces:R:3 energy=-2.168563497483783 pbc="F F F"
Ga       0.00000000       0.00000000       0.00000000       0.00000000       0.00000000       0.86079210
Ga       0.00000000       0.00000000       2.78181818       0.00000000       0.00000000      -0.86079210
2
Properties=species:S:1:pos:R:3:forces:R:3 energy=-2.1147464504111526 pbc="F F F"
Ga       0.00000000       0.00000000       0.00000000       0.00000000       0.00000000       0.93986356
Ga       0.00000000       0.00000000       2.84141414       0.00000000       0.00000000      -0.93986356
2
Properties=species:S:1:pos:R:3:forces:R:3 energy=-2.057135169814214 pbc="F F F"
Ga       0.00000000       0.00000000       0.00000000       0.00000000       0.00000000       0.98901957
Ga       0.00000000       0.00000000       2.90101010       0.00000000       0.00000000      -0.98901957
2
Properties=species:S:1:pos:R:3:forces:R:3 energy=-1.9973366869919371 pbc="F F F"
Ga       0.00000000       0.00000000       0.00000000       0.00000000       0.00000000       1.01437974
Ga       0.00000000       0.00000000       2.96060606       0.00000000       0.00000000      -1.01437974
2
Properties=species:S:1:pos:R:3:forces:R:3 energy=-1.9365692533955405 pbc="F F F"
Ga       0.00000000       0.00000000       0.00000000       0.00000000       0.00000000       1.02252471
Ga       0.00000000       0.00000000       3.02020202       0.00000000       0.00000000      -1.02252471
2
Properties=species:S:1:pos:R:3:forces:R:3 energy=-1.8757205807679858 pbc="F F F"
Ga       0.00000000       0.00000000       0.00000000       0.00000000       0.00000000       1.01748276
Ga       0.00000000       0.00000000       3.07979798       0.00000000       0.00000000      -1.01748276
2
Properties=species:S:1:pos:R:3:forces:R:3 energy=-1.8155183724321262 pbc="F F F"
Ga       0.00000000       0.00000000       0.00000000       0.00000000       0.00000000       1.00112689
Ga       0.00000000       0.00000000       3.13939394       0.00000000       0.00000000      -1.00112689
2
Properties=species:S:1:pos:R:3:forces:R:3 energy=-1.7565729226262978 pbc="F F F"
Ga       0.00000000       0.00000000       0.00000000       0.00000000       0.00000000       0.97581351
Ga       0.00000000       0.00000000       3.19898990       0.00000000       0.00000000      -0.97581351
2
Properties=species:S:1:pos:R:3:forces:R:3 energy=-1.6993219744458836 pbc="F F F"
Ga       0.00000000       0.00000000       0.00000000       0.00000000       0.00000000       0.94481689
Ga       0.00000000       0.00000000       3.25858586       0.00000000       0.00000000      -0.94481689
2
Properties=species:S:1:pos:R:3:forces:R:3 energy=-1.6440069079274646 pbc="F F F"
Ga       0.00000000       0.00000000       0.00000000       0.00000000       0.00000000       0.91134691
Ga       0.00000000       0.00000000       3.31818182       0.00000000       0.00000000      -0.91134691
2
Properties=species:S:1:pos:R:3:forces:R:3 energy=-1.5906967258483735 pbc="F F F"
Ga       0.00000000       0.00000000       0.00000000       0.00000000       0.00000000       0.87786043
Ga       0.00000000       0.00000000       3.37777778       0.00000000       0.00000000      -0.87786043
2
Properties=species:S:1:pos:R:3:forces:R:3 energy=-1.5393439989138227 pbc="F F F"
Ga       0.00000000       0.00000000       0.00000000       0.00000000       0.00000000       0.84583569
Ga       0.00000000       0.00000000       3.43737374       0.00000000       0.00000000      -0.84583569
2
Properties=species:S:1:pos:R:3:forces:R:3 energy=-1.4898385244811807 pbc="F F F"
Ga       0.00000000       0.00000000       0.00000000       0.00000000       0.00000000       0.81585038
Ga       0.00000000       0.00000000       3.49696970       0.00000000       0.00000000      -0.81585038
2
Properties=species:S:1:pos:R:3:forces:R:3 energy=-1.4420618722581142 pbc="F F F"
Ga       0.00000000       0.00000000       0.00000000       0.00000000       0.00000000       0.78779781
Ga       0.00000000       0.00000000       3.55656566       0.00000000       0.00000000      -0.78779781
2
Properties=species:S:1:pos:R:3:forces:R:3 energy=-1.395911910090382 pbc="F F F"
Ga       0.00000000       0.00000000       0.00000000       0.00000000       0.00000000       0.76115000
Ga       0.00000000       0.00000000       3.61616162       0.00000000       0.00000000      -0.76115000
2
Properties=species:S:1:pos:R:3:forces:R:3 energy=-1.35132510061094 pbc="F F F"
Ga       0.00000000       0.00000000       0.00000000       0.00000000       0.00000000       0.73520851
Ga       0.00000000       0.00000000       3.67575758       0.00000000       0.00000000      -0.73520851
2
Properties=species:S:1:pos:R:3:forces:R:3 energy=-1.308280305105938 pbc="F F F"
Ga       0.00000000       0.00000000       0.00000000       0.00000000       0.00000000       0.70929086
Ga       0.00000000       0.00000000       3.73535354       0.00000000       0.00000000      -0.70929086
2
Properties=species:S:1:pos:R:3:forces:R:3 energy=-1.2667937857321416 pbc="F F F"
Ga       0.00000000       0.00000000       0.00000000       0.00000000       0.00000000       0.68284017
Ga       0.00000000       0.00000000       3.79494949       0.00000000       0.00000000      -0.68284017
2
Properties=species:S:1:pos:R:3:forces:R:3 energy=-1.226909426355448 pbc="F F F"
Ga       0.00000000       0.00000000       0.00000000       0.00000000       0.00000000       0.65546566
Ga       0.00000000       0.00000000       3.85454545       0.00000000       0.00000000      -0.65546566
2
Properties=species:S:1:pos:R:3:forces:R:3 energy=-1.1886901233075446 pbc="F F F"
Ga       0.00000000       0.00000000       0.00000000       0.00000000       0.00000000       0.62695825
Ga       0.00000000       0.00000000       3.91414141       0.00000000       0.00000000      -0.62695825
2
Properties=species:S:1:pos:R:3:forces:R:3 energy=-1.1522047305528074 pbc="F F F"
Ga       0.00000000       0.00000000       0.00000000       0.00000000       0.00000000       0.59726214
Ga       0.00000000       0.00000000       3.97373737       0.00000000       0.00000000      -0.59726214
2
Properties=species:S:1:pos:R:3:forces:R:3 energy=-1.1175231911143633 pbc="F F F"
Ga       0.00000000       0.00000000       0.00000000       0.00000000       0.00000000       0.56647688
Ga       0.00000000       0.00000000       4.03333333       0.00000000       0.00000000      -0.56647688
2
Properties=species:S:1:pos:R:3:forces:R:3 energy=-1.0847031614590357 pbc="F F F"
Ga       0.00000000       0.00000000       0.00000000       0.00000000       0.00000000       0.53481787
Ga       0.00000000       0.00000000       4.09292929       0.00000000       0.00000000      -0.53481787
2
Properties=species:S:1:pos:R:3:forces:R:3 energy=-1.0537872696836836 pbc="F F F"
Ga       0.00000000       0.00000000       0.00000000       0.00000000       0.00000000       0.50263101
Ga       0.00000000       0.00000000       4.15252525       0.00000000       0.00000000      -0.50263101
2
Properties=species:S:1:pos:R:3:forces:R:3 energy=-1.024795366911382 pbc="F F F"
Ga       0.00000000       0.00000000       0.00000000       0.00000000       0.00000000       0.47035944
Ga       0.00000000       0.00000000       4.21212121       0.00000000       0.00000000      -0.47035944
2
Properties=species:S:1:pos:R:3:forces:R:3 energy=-0.9977160159145311 pbc="F F F"
Ga       0.00000000       0.00000000       0.00000000       0.00000000       0.00000000       0.43851310
Ga       0.00000000       0.00000000       4.27171717       0.00000000       0.00000000      -0.43851310
2
Properties=species:S:1:pos:R:3:forces:R:3 energy=-0.9725086147073125 pbc="F F F"
Ga       0.00000000       0.00000000       0.00000000       0.00000000       0.00000000       0.40764868
Ga       0.00000000       0.00000000       4.33131313       0.00000000       0.00000000      -0.40764868
2
Properties=species:S:1:pos:R:3:forces:R:3 energy=-0.9490978749045057 pbc="F F F"
Ga       0.00000000       0.00000000       0.00000000       0.00000000       0.00000000       0.37828916
Ga       0.00000000       0.00000000       4.39090909       0.00000000       0.00000000      -0.37828916
2
Properties=species:S:1:pos:R:3:forces:R:3 energy=-0.9273805210323501 pbc="F F F"
Ga       0.00000000       0.00000000       0.00000000       0.00000000       0.00000000       0.35087791
Ga       0.00000000       0.00000000       4.45050505       0.00000000       0.00000000      -0.35087791
2
Properties=species:S:1:pos:R:3:forces:R:3 energy=-0.9072317500049375 pbc="F F F"
Ga       0.00000000       0.00000000       0.00000000       0.00000000       0.00000000       0.32569700
Ga       0.00000000       0.00000000       4.51010101       0.00000000       0.00000000      -0.32569700
2
Properties=species:S:1:pos:R:3:forces:R:3 energy=-0.8885143140368896 pbc="F F F"
Ga       0.00000000       0.00000000       0.00000000       0.00000000       0.00000000       0.30280429
Ga       0.00000000       0.00000000       4.56969697       0.00000000       0.00000000      -0.30280429
2
Properties=species:S:1:pos:R:3:forces:R:3 energy=-0.8710976353113754 pbc="F F F"
Ga       0.00000000       0.00000000       0.00000000       0.00000000       0.00000000       0.28200728
Ga       0.00000000       0.00000000       4.62929293       0.00000000       0.00000000      -0.28200728
2
Properties=species:S:1:pos:R:3:forces:R:3 energy=-0.8548684544526635 pbc="F F F"
Ga       0.00000000       0.00000000       0.00000000       0.00000000       0.00000000       0.26287284
Ga       0.00000000       0.00000000       4.68888889       0.00000000       0.00000000      -0.26287284
2
Properties=species:S:1:pos:R:3:forces:R:3 energy=-0.8397441502883317 pbc="F F F"
Ga       0.00000000       0.00000000       0.00000000       0.00000000       0.00000000       0.24480504
Ga       0.00000000       0.00000000       4.74848485       0.00000000       0.00000000      -0.24480504
2
Properties=species:S:1:pos:R:3:forces:R:3 energy=-0.8256800684687103 pbc="F F F"
Ga       0.00000000       0.00000000       0.00000000       0.00000000       0.00000000       0.22722964
Ga       0.00000000       0.00000000       4.80808081       0.00000000       0.00000000      -0.22722964
2
Properties=species:S:1:pos:R:3:forces:R:3 energy=-0.8126575361815495 pbc="F F F"
Ga       0.00000000       0.00000000       0.00000000       0.00000000       0.00000000       0.20980419
Ga       0.00000000       0.00000000       4.86767677       0.00000000       0.00000000      -0.20980419
2
Properties=species:S:1:pos:R:3:forces:R:3 energy=-0.8006676269299091 pbc="F F F"
Ga       0.00000000       0.00000000       0.00000000       0.00000000       0.00000000       0.19265050
Ga       0.00000000       0.00000000       4.92727273       0.00000000       0.00000000      -0.19265050
2
Properties=species:S:1:pos:R:3:forces:R:3 energy=-0.789675750037453 pbc="F F F"
Ga       0.00000000       0.00000000       0.00000000       0.00000000       0.00000000       0.17648551
Ga       0.00000000       0.00000000       4.98686869       0.00000000       0.00000000      -0.17648551
2
Properties=species:S:1:pos:R:3:forces:R:3 energy=-0.779588772643199 pbc="F F F"
Ga       0.00000000       0.00000000       0.00000000       0.00000000       0.00000000       0.16255479
Ga       0.00000000       0.00000000       5.04646465       0.00000000       0.00000000      -0.16255479
2
Properties=species:S:1:pos:R:3:forces:R:3 energy=-0.7702286770323745 pbc="F F F"
Ga       0.00000000       0.00000000       0.00000000       0.00000000       0.00000000       0.15226470
Ga       0.00000000       0.00000000       5.10606061       0.00000000       0.00000000      -0.15226470
2
Properties=species:S:1:pos:R:3:forces:R:3 energy=-0.7613481507108351 pbc="F F F"
Ga       0.00000000       0.00000000       0.00000000       0.00000000       0.00000000       0.14647880
Ga       0.00000000       0.00000000       5.16565657       0.00000000       0.00000000      -0.14647880
2
Properties=species:S:1:pos:R:3:forces:R:3 energy=-0.7526899700542825 pbc="F F F"
Ga       0.00000000       0.00000000       0.00000000       0.00000000       0.00000000       0.14457838
Ga       0.00000000       0.00000000       5.22525253       0.00000000       0.00000000      -0.14457838
2
Properties=species:S:1:pos:R:3:forces:R:3 energy=-0.7440964106774071 pbc="F F F"
Ga       0.00000000       0.00000000       0.00000000       0.00000000       0.00000000       0.14359826
Ga       0.00000000       0.00000000       5.28484848       0.00000000       0.00000000      -0.14359826
2
Properties=species:S:1:pos:R:3:forces:R:3 energy=-0.7356524516367458 pbc="F F F"
Ga       0.00000000       0.00000000       0.00000000       0.00000000       0.00000000       0.13875595
Ga       0.00000000       0.00000000       5.34444444       0.00000000       0.00000000      -0.13875595
2
Properties=species:S:1:pos:R:3:forces:R:3 energy=-0.7276711453662242 pbc="F F F"
Ga       0.00000000       0.00000000       0.00000000       0.00000000       0.00000000       0.12864111
Ga       0.00000000       0.00000000       5.40404040       0.00000000       0.00000000      -0.12864111
2
Properties=species:S:1:pos:R:3:forces:R:3 energy=-0.7202274034009888 pbc="F F F"
Ga       0.00000000       0.00000000       0.00000000       0.00000000       0.00000000       0.12315136
Ga       0.00000000       0.00000000       5.46363636       0.00000000       0.00000000      -0.12315136
2
Properties=species:S:1:pos:R:3:forces:R:3 energy=-0.7127396598861266 pbc="F F F"
Ga       0.00000000       0.00000000       0.00000000       0.00000000       0.00000000       0.12914626
Ga       0.00000000       0.00000000       5.52323232       0.00000000       0.00000000      -0.12914626
2
Properties=species:S:1:pos:R:3:forces:R:3 energy=-0.7050061474273299 pbc="F F F"
Ga       0.00000000       0.00000000       0.00000000       0.00000000       0.00000000       0.12727587
Ga       0.00000000       0.00000000       5.58282828       0.00000000       0.00000000      -0.12727587
2
Properties=species:S:1:pos:R:3:forces:R:3 energy=-0.6978916625999527 pbc="F F F"
Ga       0.00000000       0.00000000       0.00000000       0.00000000       0.00000000       0.11026024
Ga       0.00000000       0.00000000       5.64242424       0.00000000       0.00000000      -0.11026024
2
Properties=species:S:1:pos:R:3:forces:R:3 energy=-0.6917441929031954 pbc="F F F"
Ga       0.00000000       0.00000000       0.00000000       0.00000000       0.00000000       0.09920688
Ga       0.00000000       0.00000000       5.70202020       0.00000000       0.00000000      -0.09920688
2
Properties=species:S:1:pos:R:3:forces:R:3 energy=-0.6855518757920013 pbc="F F F"
Ga       0.00000000       0.00000000       0.00000000       0.00000000       0.00000000       0.11204132
Ga       0.00000000       0.00000000       5.76161616       0.00000000       0.00000000      -0.11204132
2
Properties=species:S:1:pos:R:3:forces:R:3 energy=-0.6785406637503707 pbc="F F F"
Ga       0.00000000       0.00000000       0.00000000       0.00000000       0.00000000       0.11690677
Ga       0.00000000       0.00000000       5.82121212       0.00000000       0.00000000      -0.11690677
2
Properties=species:S:1:pos:R:3:forces:R:3 energy=-0.6725459960668174 pbc="F F F"
Ga       0.00000000       0.00000000       0.00000000       0.00000000       0.00000000       0.07889237
Ga       0.00000000       0.00000000       5.88080808       0.00000000       0.00000000      -0.07889237
2
Properties=species:S:1:pos:R:3:forces:R:3 energy=-0.6693501759889401 pbc="F F F"
Ga       0.00000000       0.00000000       0.00000000       0.00000000       0.00000000       0.02937866
Ga       0.00000000       0.00000000       5.94040404       0.00000000       0.00000000      -0.02937866
2
Properties=species:S:1:pos:R:3:forces:R:3 energy=-0.668439160796699 pbc="F F F"
Ga       0.00000000       0.00000000       0.00000000       0.00000000       0.00000000       0.00820687
Ga       0.00000000       0.00000000       6.00000000       0.00000000       0.00000000      -0.00820687
