2
Properties=species:S:1:pos:R:3:forces:R:3 energy=14148.506040921342 pbc="F F F"
Gd       0.00000000       0.00000000       0.00000000       0.00000000       0.00000000 -209310.56250000
Gd       0.00000000       0.00000000       0.18000000       0.00000000       0.00000000  209310.56250000
2
Properties=species:S:1:pos:R:3:forces:R:3 energy=6787.662779202593 pbc="F F F"
Gd       0.00000000       0.00000000       0.00000000       0.00000000       0.00000000  -70326.73437500
Gd       0.00000000       0.00000000       0.23878788       0.00000000       0.00000000   70326.73437500
2
Properties=species:S:1:pos:R:3:forces:R:3 energy=4115.622740140093 pbc="F F F"
Gd       0.00000000       0.00000000       0.00000000       0.00000000       0.00000000  -28009.00390625
Gd       0.00000000       0.00000000       0.29757576       0.00000000       0.00000000   28009.00390625
2
Properties=species:S:1:pos:R:3:forces:R:3 energy=2991.1000350619674 pbc="F F F"
Gd       0.00000000       0.00000000       0.00000000       0.00000000       0.00000000  -12650.49316406
Gd       0.00000000       0.00000000       0.35636364       0.00000000       0.00000000   12650.49316406
2
Properties=species:S:1:pos:R:3:forces:R:3 energy=2452.5182479589284 pbc="F F F"
Gd       0.00000000       0.00000000       0.00000000       0.00000000       0.00000000   -6581.68798828
Gd       0.00000000       0.00000000       0.41515152       0.00000000       0.00000000    6581.68798828
2
Properties=species:S:1:pos:R:3:forces:R:3 energy=2147.219419840264 pbc="F F F"
Gd       0.00000000       0.00000000       0.00000000       0.00000000       0.00000000   -4187.26660156
Gd       0.00000000       0.00000000       0.47393939       0.00000000       0.00000000    4187.26660156
2
Properties=species:S:1:pos:R:3:forces:R:3 energy=1929.8494247420833 pbc="F F F"
Gd       0.00000000       0.00000000       0.00000000       0.00000000       0.00000000   -3376.52246094
Gd       0.00000000       0.00000000       0.53272727       0.00000000       0.00000000    3376.52246094
2
Properties=species:S:1:pos:R:3:forces:R:3 energy=1737.1245712644723 pbc="F F F"
Gd       0.00000000       0.00000000       0.00000000       0.00000000       0.00000000   -3246.76757812
Gd       0.00000000       0.00000000       0.59151515       0.00000000       0.00000000    3246.76757812
2
Properties=species:S:1:pos:R:3:forces:R:3 energy=1542.0955185807823 pbc="F F F"
Gd       0.00000000       0.00000000       0.00000000       0.00000000       0.00000000   -3423.78808594
Gd       0.00000000       0.00000000       0.65030303       0.00000000       0.00000000    3423.78808594
2
Properties=species:S:1:pos:R:3:forces:R:3 energy=1337.9940782334581 pbc="F F F"
Gd       0.00000000       0.00000000       0.00000000       0.00000000       0.00000000   -3489.70361328
Gd       0.00000000       0.00000000       0.70909091       0.00000000       0.00000000    3489.70361328
2
Properties=species:S:1:pos:R:3:forces:R:3 energy=1143.333555911905 pbc="F F F"
Gd       0.00000000       0.00000000       0.00000000       0.00000000       0.00000000   -2379.72607422
Gd       0.00000000       0.00000000       0.76787879       0.00000000       0.00000000    2379.72607422
2
Properties=species:S:1:pos:R:3:forces:R:3 energy=1001.2394398910368 pbc="F F F"
Gd       0.00000000       0.00000000       0.00000000       0.00000000       0.00000000   -2379.31005859
Gd       0.00000000       0.00000000       0.82666667       0.00000000       0.00000000    2379.31005859
2
Properties=species:S:1:pos:R:3:forces:R:3 energy=866.4614250330864 pbc="F F F"
Gd       0.00000000       0.00000000       0.00000000       0.00000000       0.00000000   -2191.49487305
Gd       0.00000000       0.00000000       0.88545455       0.00000000       0.00000000    2191.49487305
2
Properties=species:S:1:pos:R:3:forces:R:3 energy=741.6826778546313 pbc="F F F"
Gd       0.00000000       0.00000000       0.00000000       0.00000000       0.00000000   -2090.97338867
Gd       0.00000000       0.00000000       0.94424242       0.00000000       0.00000000    2090.97338867
2
Properties=species:S:1:pos:R:3:forces:R:3 energy=635.0761720455048 pbc="F F F"
Gd       0.00000000       0.00000000       0.00000000       0.00000000       0.00000000   -1674.65283203
Gd       0.00000000       0.00000000       1.00303030       0.00000000       0.00000000    1674.65283203
2
Properties=species:S:1:pos:R:3:forces:R:3 energy=541.03601162862 pbc="F F F"
Gd       0.00000000       0.00000000       0.00000000       0.00000000       0.00000000   -1553.37463379
Gd       0.00000000       0.00000000       1.06181818       0.00000000       0.00000000    1553.37463379
2
Properties=species:S:1:pos:R:3:forces:R:3 energy=445.35455507210673 pbc="F F F"
Gd       0.00000000       0.00000000       0.00000000       0.00000000       0.00000000   -1876.73474121
Gd       0.00000000       0.00000000       1.12060606       0.00000000       0.00000000    1876.73474121
2
Properties=species:S:1:pos:R:3:forces:R:3 energy=325.4924957733537 pbc="F F F"
Gd       0.00000000       0.00000000       0.00000000       0.00000000       0.00000000   -1870.94494629
Gd       0.00000000       0.00000000       1.17939394       0.00000000       0.00000000    1870.94494629
2
Properties=species:S:1:pos:R:3:forces:R:3 energy=229.25418562136485 pbc="F F F"
Gd       0.00000000       0.00000000       0.00000000       0.00000000       0.00000000   -1428.81848145
Gd       0.00000000       0.00000000       1.23818182       0.00000000       0.00000000    1428.81848145
2
Properties=species:S:1:pos:R:3:forces:R:3 energy=155.7511969704643 pbc="F F F"
Gd       0.00000000       0.00000000       0.00000000       0.00000000       0.00000000   -1079.89501953
Gd       0.00000000       0.00000000       1.29696970       0.00000000       0.00000000    1079.89501953
2
Properties=species:S:1:pos:R:3:forces:R:3 energy=100.4487246051638 pbc="F F F"
Gd       0.00000000       0.00000000       0.00000000       0.00000000       0.00000000    -816.99835205
Gd       0.00000000       0.00000000       1.35575758       0.00000000       0.00000000     816.99835205
2
Properties=species:S:1:pos:R:3:forces:R:3 energy=58.8074696536171 pbc="F F F"
Gd       0.00000000       0.00000000       0.00000000       0.00000000       0.00000000    -599.92938232
Gd       0.00000000       0.00000000       1.41454545       0.00000000       0.00000000     599.92938232
2
Properties=species:S:1:pos:R:3:forces:R:3 energy=30.048165853436963 pbc="F F F"
Gd       0.00000000       0.00000000       0.00000000       0.00000000       0.00000000    -383.17779541
Gd       0.00000000       0.00000000       1.47333333       0.00000000       0.00000000     383.17779541
2
Properties=species:S:1:pos:R:3:forces:R:3 energy=12.263666940835313 pbc="F F F"
Gd       0.00000000       0.00000000       0.00000000       0.00000000       0.00000000    -236.27514648
Gd       0.00000000       0.00000000       1.53212121       0.00000000       0.00000000     236.27514648
2
Properties=species:S:1:pos:R:3:forces:R:3 energy=1.153735405892311 pbc="F F F"
Gd       0.00000000       0.00000000       0.00000000       0.00000000       0.00000000    -147.77659607
Gd       0.00000000       0.00000000       1.59090909       0.00000000       0.00000000     147.77659607
2
Properties=species:S:1:pos:R:3:forces:R:3 energy=-5.877282076251325 pbc="F F F"
Gd       0.00000000       0.00000000       0.00000000       0.00000000       0.00000000     -97.63826752
Gd       0.00000000       0.00000000       1.64969697       0.00000000       0.00000000      97.63826752
2
Properties=species:S:1:pos:R:3:forces:R:3 energy=-10.74043321299824 pbc="F F F"
Gd       0.00000000       0.00000000       0.00000000       0.00000000       0.00000000     -69.02584839
Gd       0.00000000       0.00000000       1.70848485       0.00000000       0.00000000      69.02584839
2
Properties=species:S:1:pos:R:3:forces:R:3 energy=-14.09594743384503 pbc="F F F"
Gd       0.00000000       0.00000000       0.00000000       0.00000000       0.00000000     -46.28366470
Gd       0.00000000       0.00000000       1.76727273       0.00000000       0.00000000      46.28366470
2
Properties=species:S:1:pos:R:3:forces:R:3 energy=-16.33204523440039 pbc="F F F"
Gd       0.00000000       0.00000000       0.00000000       0.00000000       0.00000000     -30.94765472
Gd       0.00000000       0.00000000       1.82606061       0.00000000       0.00000000      30.94765472
2
Properties=species:S:1:pos:R:3:forces:R:3 energy=-17.842665322467266 pbc="F F F"
Gd       0.00000000       0.00000000       0.00000000       0.00000000       0.00000000     -21.14636993
Gd       0.00000000       0.00000000       1.88484848       0.00000000       0.00000000      21.14636993
2
Properties=species:S:1:pos:R:3:forces:R:3 energy=-18.882352536034638 pbc="F F F"
Gd       0.00000000       0.00000000       0.00000000       0.00000000       0.00000000     -14.64423084
Gd       0.00000000       0.00000000       1.94363636       0.00000000       0.00000000      14.64423084
2
Properties=species:S:1:pos:R:3:forces:R:3 energy=-19.60331288418406 pbc="F F F"
Gd       0.00000000       0.00000000       0.00000000       0.00000000       0.00000000     -10.14219475
Gd       0.00000000       0.00000000       2.00242424       0.00000000       0.00000000      10.14219475
2
Properties=species:S:1:pos:R:3:forces:R:3 energy=-20.0994599617385 pbc="F F F"
Gd       0.00000000       0.00000000       0.00000000       0.00000000       0.00000000      -6.90900564
Gd       0.00000000       0.00000000       2.06121212       0.00000000       0.00000000       6.90900564
2
Properties=species:S:1:pos:R:3:forces:R:3 energy=-20.432986172380886 pbc="F F F"
Gd       0.00000000       0.00000000       0.00000000       0.00000000       0.00000000      -4.56638622
Gd       0.00000000       0.00000000       2.12000000       0.00000000       0.00000000       4.56638622
2
Properties=species:S:1:pos:R:3:forces:R:3 energy=-20.649917201104206 pbc="F F F"
Gd       0.00000000       0.00000000       0.00000000       0.00000000       0.00000000      -2.91829801
Gd       0.00000000       0.00000000       2.17878788       0.00000000       0.00000000       2.91829801
2
Properties=species:S:1:pos:R:3:forces:R:3 energy=-20.787468600867474 pbc="F F F"
Gd       0.00000000       0.00000000       0.00000000       0.00000000       0.00000000      -1.85080802
Gd       0.00000000       0.00000000       2.23757576       0.00000000       0.00000000       1.85080802
2
Properties=species:S:1:pos:R:3:forces:R:3 energy=-20.877166278315432 pbc="F F F"
Gd       0.00000000       0.00000000       0.00000000       0.00000000       0.00000000      -1.27440286
Gd       0.00000000       0.00000000       2.29636364       0.00000000       0.00000000       1.27440286
2
Properties=species:S:1:pos:R:3:forces:R:3 energy=-20.944745321937667 pbc="F F F"
Gd       0.00000000       0.00000000       0.00000000       0.00000000       0.00000000      -1.07634306
Gd       0.00000000       0.00000000       2.35515152       0.00000000       0.00000000       1.07634306
2
Properties=species:S:1:pos:R:3:forces:R:3 energy=-21.008315221382837 pbc="F F F"
Gd       0.00000000       0.00000000       0.00000000       0.00000000       0.00000000      -1.11273301
Gd       0.00000000       0.00000000       2.41393939       0.00000000       0.00000000       1.11273301
2
Properties=species:S:1:pos:R:3:forces:R:3 energy=-21.077289762512304 pbc="F F F"
Gd       0.00000000       0.00000000       0.00000000       0.00000000       0.00000000      -1.23793972
Gd       0.00000000       0.00000000       2.47272727       0.00000000       0.00000000       1.23793972
2
Properties=species:S:1:pos:R:3:forces:R:3 energy=-21.153436056476885 pbc="F F F"
Gd       0.00000000       0.00000000       0.00000000       0.00000000       0.00000000      -1.34321678
Gd       0.00000000       0.00000000       2.53151515       0.00000000       0.00000000       1.34321678
2
Properties=species:S:1:pos:R:3:forces:R:3 energy=-21.233794766501425 pbc="F F F"
Gd       0.00000000       0.00000000       0.00000000       0.00000000       0.00000000      -1.37746036
Gd       0.00000000       0.00000000       2.59030303       0.00000000       0.00000000       1.37746036
2
Properties=species:S:1:pos:R:3:forces:R:3 energy=-21.31392631388753 pbc="F F F"
Gd       0.00000000       0.00000000       0.00000000       0.00000000       0.00000000      -1.33754480
Gd       0.00000000       0.00000000       2.64909091       0.00000000       0.00000000       1.33754480
2
Properties=species:S:1:pos:R:3:forces:R:3 energy=-21.389976669631437 pbc="F F F"
Gd       0.00000000       0.00000000       0.00000000       0.00000000       0.00000000      -1.24241412
Gd       0.00000000       0.00000000       2.70787879       0.00000000       0.00000000       1.24241412
2
Properties=species:S:1:pos:R:3:forces:R:3 energy=-21.459333285948723 pbc="F F F"
Gd       0.00000000       0.00000000       0.00000000       0.00000000       0.00000000      -1.11290860
Gd       0.00000000       0.00000000       2.76666667       0.00000000       0.00000000       1.11290860
2
Properties=species:S:1:pos:R:3:forces:R:3 energy=-21.520451692275476 pbc="F F F"
Gd       0.00000000       0.00000000       0.00000000       0.00000000       0.00000000      -0.96411473
Gd       0.00000000       0.00000000       2.82545455       0.00000000       0.00000000       0.96411473
2
Properties=species:S:1:pos:R:3:forces:R:3 energy=-21.57249875771751 pbc="F F F"
Gd       0.00000000       0.00000000       0.00000000       0.00000000       0.00000000      -0.80545688
Gd       0.00000000       0.00000000       2.88424242       0.00000000       0.00000000       0.80545688
2
Properties=species:S:1:pos:R:3:forces:R:3 energy=-21.615081803195014 pbc="F F F"
Gd       0.00000000       0.00000000       0.00000000       0.00000000       0.00000000      -0.64303392
Gd       0.00000000       0.00000000       2.94303030       0.00000000       0.00000000       0.64303392
2
Properties=species:S:1:pos:R:3:forces:R:3 energy=-21.648124731487343 pbc="F F F"
Gd       0.00000000       0.00000000       0.00000000       0.00000000       0.00000000      -0.48163745
Gd       0.00000000       0.00000000       3.00181818       0.00000000       0.00000000       0.48163745
2
Properties=species:S:1:pos:R:3:forces:R:3 energy=-21.67181822075668 pbc="F F F"
Gd       0.00000000       0.00000000       0.00000000       0.00000000       0.00000000      -0.32575208
Gd       0.00000000       0.00000000       3.06060606       0.00000000       0.00000000       0.32575208
2
Properties=species:S:1:pos:R:3:forces:R:3 energy=-21.686616277318134 pbc="F F F"
Gd       0.00000000       0.00000000       0.00000000       0.00000000       0.00000000      -0.17961031
Gd       0.00000000       0.00000000       3.11939394       0.00000000       0.00000000       0.17961031
2
Properties=species:S:1:pos:R:3:forces:R:3 energy=-21.693197645171978 pbc="F F F"
Gd       0.00000000       0.00000000       0.00000000       0.00000000       0.00000000      -0.04669455
Gd       0.00000000       0.00000000       3.17818182       0.00000000       0.00000000       0.04669455
2
Properties=species:S:1:pos:R:3:forces:R:3 energy=-21.692408883319956 pbc="F F F"
Gd       0.00000000       0.00000000       0.00000000       0.00000000       0.00000000       0.07081629
Gd       0.00000000       0.00000000       3.23696970       0.00000000       0.00000000      -0.07081629
2
Properties=species:S:1:pos:R:3:forces:R:3 energy=-21.68518612012182 pbc="F F F"
Gd       0.00000000       0.00000000       0.00000000       0.00000000       0.00000000       0.17224821
Gd       0.00000000       0.00000000       3.29575758       0.00000000       0.00000000      -0.17224821
2
Properties=species:S:1:pos:R:3:forces:R:3 energy=-21.67246342453323 pbc="F F F"
Gd       0.00000000       0.00000000       0.00000000       0.00000000       0.00000000       0.25814459
Gd       0.00000000       0.00000000       3.35454545       0.00000000       0.00000000      -0.25814459
2
Properties=species:S:1:pos:R:3:forces:R:3 energy=-21.65511562999627 pbc="F F F"
Gd       0.00000000       0.00000000       0.00000000       0.00000000       0.00000000       0.32972094
Gd       0.00000000       0.00000000       3.41333333       0.00000000       0.00000000      -0.32972094
2
Properties=species:S:1:pos:R:3:forces:R:3 energy=-21.63394882303887 pbc="F F F"
Gd       0.00000000       0.00000000       0.00000000       0.00000000       0.00000000       0.38833278
Gd       0.00000000       0.00000000       3.47212121       0.00000000       0.00000000      -0.38833278
2
Properties=species:S:1:pos:R:3:forces:R:3 energy=-21.609688905518652 pbc="F F F"
Gd       0.00000000       0.00000000       0.00000000       0.00000000       0.00000000       0.43514165
Gd       0.00000000       0.00000000       3.53090909       0.00000000       0.00000000      -0.43514165
2
Properties=species:S:1:pos:R:3:forces:R:3 energy=-21.58300078215085 pbc="F F F"
Gd       0.00000000       0.00000000       0.00000000       0.00000000       0.00000000       0.47103527
Gd       0.00000000       0.00000000       3.58969697       0.00000000       0.00000000      -0.47103527
2
Properties=species:S:1:pos:R:3:forces:R:3 energy=-21.554505355583615 pbc="F F F"
Gd       0.00000000       0.00000000       0.00000000       0.00000000       0.00000000       0.49674529
Gd       0.00000000       0.00000000       3.64848485       0.00000000       0.00000000      -0.49674529
2
Properties=species:S:1:pos:R:3:forces:R:3 energy=-21.524781794878372 pbc="F F F"
Gd       0.00000000       0.00000000       0.00000000       0.00000000       0.00000000       0.51301104
Gd       0.00000000       0.00000000       3.70727273       0.00000000       0.00000000      -0.51301104
2
Properties=species:S:1:pos:R:3:forces:R:3 energy=-21.494355647922916 pbc="F F F"
Gd       0.00000000       0.00000000       0.00000000       0.00000000       0.00000000       0.52075422
Gd       0.00000000       0.00000000       3.76606061       0.00000000       0.00000000      -0.52075422
2
Properties=species:S:1:pos:R:3:forces:R:3 energy=-21.46369733956403 pbc="F F F"
Gd       0.00000000       0.00000000       0.00000000       0.00000000       0.00000000       0.52114224
Gd       0.00000000       0.00000000       3.82484848       0.00000000       0.00000000      -0.52114224
2
Properties=species:S:1:pos:R:3:forces:R:3 energy=-21.43319721134848 pbc="F F F"
Gd       0.00000000       0.00000000       0.00000000       0.00000000       0.00000000       0.51556593
Gd       0.00000000       0.00000000       3.88363636       0.00000000       0.00000000      -0.51556593
2
Properties=species:S:1:pos:R:3:forces:R:3 energy=-21.403165660907227 pbc="F F F"
Gd       0.00000000       0.00000000       0.00000000       0.00000000       0.00000000       0.50555122
Gd       0.00000000       0.00000000       3.94242424       0.00000000       0.00000000      -0.50555122
2
Properties=species:S:1:pos:R:3:forces:R:3 energy=-21.373815944139466 pbc="F F F"
Gd       0.00000000       0.00000000       0.00000000       0.00000000       0.00000000       0.49263802
Gd       0.00000000       0.00000000       4.00121212       0.00000000       0.00000000      -0.49263802
2
Properties=species:S:1:pos:R:3:forces:R:3 energy=-21.345271874299282 pbc="F F F"
Gd       0.00000000       0.00000000       0.00000000       0.00000000       0.00000000       0.47825149
Gd       0.00000000       0.00000000       4.06000000       0.00000000       0.00000000      -0.47825149
2
Properties=species:S:1:pos:R:3:forces:R:3 energy=-21.31758889152961 pbc="F F F"
Gd       0.00000000       0.00000000       0.00000000       0.00000000       0.00000000       0.46360958
Gd       0.00000000       0.00000000       4.11878788       0.00000000       0.00000000      -0.46360958
2
Properties=species:S:1:pos:R:3:forces:R:3 energy=-21.290750248164983 pbc="F F F"
Gd       0.00000000       0.00000000       0.00000000       0.00000000       0.00000000       0.44962212
Gd       0.00000000       0.00000000       4.17757576       0.00000000       0.00000000      -0.44962212
2
Properties=species:S:1:pos:R:3:forces:R:3 energy=-21.26469947800778 pbc="F F F"
Gd       0.00000000       0.00000000       0.00000000       0.00000000       0.00000000       0.43683931
Gd       0.00000000       0.00000000       4.23636364       0.00000000       0.00000000      -0.43683931
2
Properties=species:S:1:pos:R:3:forces:R:3 energy=-21.239361465862235 pbc="F F F"
Gd       0.00000000       0.00000000       0.00000000       0.00000000       0.00000000       0.42541778
Gd       0.00000000       0.00000000       4.29515152       0.00000000       0.00000000      -0.42541778
2
Properties=species:S:1:pos:R:3:forces:R:3 energy=-21.214657801358136 pbc="F F F"
Gd       0.00000000       0.00000000       0.00000000       0.00000000       0.00000000       0.41516143
Gd       0.00000000       0.00000000       4.35393939       0.00000000       0.00000000      -0.41516143
2
Properties=species:S:1:pos:R:3:forces:R:3 energy=-21.19053528781003 pbc="F F F"
Gd       0.00000000       0.00000000       0.00000000       0.00000000       0.00000000       0.40557936
Gd       0.00000000       0.00000000       4.41272727       0.00000000       0.00000000      -0.40557936
2
Properties=species:S:1:pos:R:3:forces:R:3 energy=-21.16697180364728 pbc="F F F"
Gd       0.00000000       0.00000000       0.00000000       0.00000000       0.00000000       0.39603019
Gd       0.00000000       0.00000000       4.47151515       0.00000000       0.00000000      -0.39603019
2
Properties=species:S:1:pos:R:3:forces:R:3 energy=-21.14398400150069 pbc="F F F"
Gd       0.00000000       0.00000000       0.00000000       0.00000000       0.00000000       0.38586065
Gd       0.00000000       0.00000000       4.53030303       0.00000000       0.00000000      -0.38586065
2
Properties=species:S:1:pos:R:3:forces:R:3 energy=-21.12162530581922 pbc="F F F"
Gd       0.00000000       0.00000000       0.00000000       0.00000000       0.00000000       0.37455168
Gd       0.00000000       0.00000000       4.58909091       0.00000000       0.00000000      -0.37455168
2
Properties=species:S:1:pos:R:3:forces:R:3 energy=-21.099974582819762 pbc="F F F"
Gd       0.00000000       0.00000000       0.00000000       0.00000000       0.00000000       0.36183000
Gd       0.00000000       0.00000000       4.64787879       0.00000000       0.00000000      -0.36183000
2
Properties=species:S:1:pos:R:3:forces:R:3 energy=-21.07911131327671 pbc="F F F"
Gd       0.00000000       0.00000000       0.00000000       0.00000000       0.00000000       0.34770760
Gd       0.00000000       0.00000000       4.70666667       0.00000000       0.00000000      -0.34770760
2
Properties=species:S:1:pos:R:3:forces:R:3 energy=-21.059113672502033 pbc="F F F"
Gd       0.00000000       0.00000000       0.00000000       0.00000000       0.00000000       0.33245286
Gd       0.00000000       0.00000000       4.76545455       0.00000000       0.00000000      -0.33245286
2
Properties=species:S:1:pos:R:3:forces:R:3 energy=-21.0400356168191 pbc="F F F"
Gd       0.00000000       0.00000000       0.00000000       0.00000000       0.00000000       0.31649819
Gd       0.00000000       0.00000000       4.82424242       0.00000000       0.00000000      -0.31649819
2
Properties=species:S:1:pos:R:3:forces:R:3 energy=-21.02190688989834 pbc="F F F"
Gd       0.00000000       0.00000000       0.00000000       0.00000000       0.00000000       0.30034208
Gd       0.00000000       0.00000000       4.88303030       0.00000000       0.00000000      -0.30034208
2
Properties=species:S:1:pos:R:3:forces:R:3 energy=-21.00471760557705 pbc="F F F"
Gd       0.00000000       0.00000000       0.00000000       0.00000000       0.00000000       0.28446686
Gd       0.00000000       0.00000000       4.94181818       0.00000000       0.00000000      -0.28446686
2
Properties=species:S:1:pos:R:3:forces:R:3 energy=-20.988443068734213 pbc="F F F"
Gd       0.00000000       0.00000000       0.00000000       0.00000000       0.00000000       0.26932356
Gd       0.00000000       0.00000000       5.00060606       0.00000000       0.00000000      -0.26932356
2
Properties=species:S:1:pos:R:3:forces:R:3 energy=-20.973028478487564 pbc="F F F"
Gd       0.00000000       0.00000000       0.00000000       0.00000000       0.00000000       0.25533694
Gd       0.00000000       0.00000000       5.05939394       0.00000000       0.00000000      -0.25533694
2
Properties=species:S:1:pos:R:3:forces:R:3 energy=-20.958392540150246 pbc="F F F"
Gd       0.00000000       0.00000000       0.00000000       0.00000000       0.00000000       0.24290228
Gd       0.00000000       0.00000000       5.11818182       0.00000000       0.00000000      -0.24290228
2
Properties=species:S:1:pos:R:3:forces:R:3 energy=-20.94443318094105 pbc="F F F"
Gd       0.00000000       0.00000000       0.00000000       0.00000000       0.00000000       0.23231429
Gd       0.00000000       0.00000000       5.17696970       0.00000000       0.00000000      -0.23231429
2
Properties=species:S:1:pos:R:3:forces:R:3 energy=-20.931044589409247 pbc="F F F"
Gd       0.00000000       0.00000000       0.00000000       0.00000000       0.00000000       0.22339873
Gd       0.00000000       0.00000000       5.23575758       0.00000000       0.00000000      -0.22339873
2
Properties=species:S:1:pos:R:3:forces:R:3 energy=-20.918159113748036 pbc="F F F"
Gd       0.00000000       0.00000000       0.00000000       0.00000000       0.00000000       0.21493483
Gd       0.00000000       0.00000000       5.29454545       0.00000000       0.00000000      -0.21493483
2
Properties=species:S:1:pos:R:3:forces:R:3 energy=-20.905808195580512 pbc="F F F"
Gd       0.00000000       0.00000000       0.00000000       0.00000000       0.00000000       0.20470488
Gd       0.00000000       0.00000000       5.35333333       0.00000000       0.00000000      -0.20470488
2
Properties=species:S:1:pos:R:3:forces:R:3 energy=-20.89412795895702 pbc="F F F"
Gd       0.00000000       0.00000000       0.00000000       0.00000000       0.00000000       0.19266416
Gd       0.00000000       0.00000000       5.41212121       0.00000000       0.00000000      -0.19266416
2
Properties=species:S:1:pos:R:3:forces:R:3 energy=-20.883084533145112 pbc="F F F"
Gd       0.00000000       0.00000000       0.00000000       0.00000000       0.00000000       0.18417270
Gd       0.00000000       0.00000000       5.47090909       0.00000000       0.00000000      -0.18417270
2
Properties=species:S:1:pos:R:3:forces:R:3 energy=-20.872386216389923 pbc="F F F"
Gd       0.00000000       0.00000000       0.00000000       0.00000000       0.00000000       0.17965265
Gd       0.00000000       0.00000000       5.52969697       0.00000000       0.00000000      -0.17965265
2
Properties=species:S:1:pos:R:3:forces:R:3 energy=-20.86210134599746 pbc="F F F"
Gd       0.00000000       0.00000000       0.00000000       0.00000000       0.00000000       0.16849969
Gd       0.00000000       0.00000000       5.58848485       0.00000000       0.00000000      -0.16849969
2
Properties=species:S:1:pos:R:3:forces:R:3 energy=-20.852727064255667 pbc="F F F"
Gd       0.00000000       0.00000000       0.00000000       0.00000000       0.00000000       0.15010388
Gd       0.00000000       0.00000000       5.64727273       0.00000000       0.00000000      -0.15010388
2
Properties=species:S:1:pos:R:3:forces:R:3 energy=-20.84428881546091 pbc="F F F"
Gd       0.00000000       0.00000000       0.00000000       0.00000000       0.00000000       0.14025699
Gd       0.00000000       0.00000000       5.70606061       0.00000000       0.00000000      -0.14025699
2
Properties=species:S:1:pos:R:3:forces:R:3 energy=-20.835796843424472 pbc="F F F"
Gd       0.00000000       0.00000000       0.00000000       0.00000000       0.00000000       0.15045390
Gd       0.00000000       0.00000000       5.76484848       0.00000000       0.00000000      -0.15045390
2
Properties=species:S:1:pos:R:3:forces:R:3 energy=-20.826798814441332 pbc="F F F"
Gd       0.00000000       0.00000000       0.00000000       0.00000000       0.00000000       0.15013257
Gd       0.00000000       0.00000000       5.82363636       0.00000000       0.00000000      -0.15013257
2
Properties=species:S:1:pos:R:3:forces:R:3 energy=-20.819054307830875 pbc="F F F"
Gd       0.00000000       0.00000000       0.00000000       0.00000000       0.00000000       0.10739195
Gd       0.00000000       0.00000000       5.88242424       0.00000000       0.00000000      -0.10739195
2
Properties=species:S:1:pos:R:3:forces:R:3 energy=-20.814431133939927 pbc="F F F"
Gd       0.00000000       0.00000000       0.00000000       0.00000000       0.00000000       0.05146129
Gd       0.00000000       0.00000000       5.94121212       0.00000000       0.00000000      -0.05146129
2
Properties=species:S:1:pos:R:3:forces:R:3 energy=-20.812349493310457 pbc="F F F"
Gd       0.00000000       0.00000000       0.00000000       0.00000000       0.00000000       0.02710294
Gd       0.00000000       0.00000000       6.00000000       0.00000000       0.00000000      -0.02710294
