2
Properties=species:S:1:pos:R:3:forces:R:3 energy=90.49283254606851 pbc="F F F"
H        0.00000000       0.00000000       0.00000000       0.00000000       0.00000000   -1048.75231934
H        0.00000000       0.00000000       0.10000000       0.00000000       0.00000000    1048.75231934
2
Properties=species:S:1:pos:R:3:forces:R:3 energy=42.944092159105615 pbc="F F F"
H        0.00000000       0.00000000       0.00000000       0.00000000       0.00000000    -588.14837646
H        0.00000000       0.00000000       0.15959596       0.00000000       0.00000000     588.14837646
2
Properties=species:S:1:pos:R:3:forces:R:3 energy=21.195249919923725 pbc="F F F"
H        0.00000000       0.00000000       0.00000000       0.00000000       0.00000000    -235.01759338
H        0.00000000       0.00000000       0.21919192       0.00000000       0.00000000     235.01759338
2
Properties=species:S:1:pos:R:3:forces:R:3 energy=9.982679730285993 pbc="F F F"
H        0.00000000       0.00000000       0.00000000       0.00000000       0.00000000    -152.10069275
H        0.00000000       0.00000000       0.27878788       0.00000000       0.00000000     152.10069275
2
Properties=species:S:1:pos:R:3:forces:R:3 energy=3.0313500243645044 pbc="F F F"
H        0.00000000       0.00000000       0.00000000       0.00000000       0.00000000     -85.40915680
H        0.00000000       0.00000000       0.33838384       0.00000000       0.00000000      85.40915680
2
Properties=species:S:1:pos:R:3:forces:R:3 energy=-0.8206757179849677 pbc="F F F"
H        0.00000000       0.00000000       0.00000000       0.00000000       0.00000000     -50.00911331
H        0.00000000       0.00000000       0.39797980       0.00000000       0.00000000      50.00911331
2
Properties=species:S:1:pos:R:3:forces:R:3 energy=-3.231053210130952 pbc="F F F"
H        0.00000000       0.00000000       0.00000000       0.00000000       0.00000000     -31.93351936
H        0.00000000       0.00000000       0.45757576       0.00000000       0.00000000      31.93351936
2
Properties=species:S:1:pos:R:3:forces:R:3 energy=-4.737904158497969 pbc="F F F"
H        0.00000000       0.00000000       0.00000000       0.00000000       0.00000000     -19.46776772
H        0.00000000       0.00000000       0.51717172       0.00000000       0.00000000      19.46776772
2
Properties=species:S:1:pos:R:3:forces:R:3 energy=-5.636760442890058 pbc="F F F"
H        0.00000000       0.00000000       0.00000000       0.00000000       0.00000000     -11.21719837
H        0.00000000       0.00000000       0.57676768       0.00000000       0.00000000      11.21719837
2
Properties=species:S:1:pos:R:3:forces:R:3 energy=-6.1312838861189105 pbc="F F F"
H        0.00000000       0.00000000       0.00000000       0.00000000       0.00000000      -5.84215307
H        0.00000000       0.00000000       0.63636364       0.00000000       0.00000000       5.84215307
2
Properties=species:S:1:pos:R:3:forces:R:3 energy=-6.364338747702559 pbc="F F F"
H        0.00000000       0.00000000       0.00000000       0.00000000       0.00000000      -2.19410896
H        0.00000000       0.00000000       0.69595960       0.00000000       0.00000000       2.19410896
2
Properties=species:S:1:pos:R:3:forces:R:3 energy=-6.416335075083875 pbc="F F F"
H        0.00000000       0.00000000       0.00000000       0.00000000       0.00000000       0.29064015
H        0.00000000       0.00000000       0.75555556       0.00000000       0.00000000      -0.29064015
2
Properties=species:S:1:pos:R:3:forces:R:3 energy=-6.34291673839438 pbc="F F F"
H        0.00000000       0.00000000       0.00000000       0.00000000       0.00000000       2.10325360
H        0.00000000       0.00000000       0.81515152       0.00000000       0.00000000      -2.10325360
2
Properties=species:S:1:pos:R:3:forces:R:3 energy=-6.17098589932244 pbc="F F F"
H        0.00000000       0.00000000       0.00000000       0.00000000       0.00000000       3.63926029
H        0.00000000       0.00000000       0.87474747       0.00000000       0.00000000      -3.63926029
2
Properties=species:S:1:pos:R:3:forces:R:3 energy=-5.91338088817674 pbc="F F F"
H        0.00000000       0.00000000       0.00000000       0.00000000       0.00000000       4.94827604
H        0.00000000       0.00000000       0.93434343       0.00000000       0.00000000      -4.94827604
2
Properties=species:S:1:pos:R:3:forces:R:3 energy=-5.589965272634166 pbc="F F F"
H        0.00000000       0.00000000       0.00000000       0.00000000       0.00000000       5.82222414
H        0.00000000       0.00000000       0.99393939       0.00000000       0.00000000      -5.82222414
2
Properties=species:S:1:pos:R:3:forces:R:3 energy=-5.229455181730047 pbc="F F F"
H        0.00000000       0.00000000       0.00000000       0.00000000       0.00000000       6.19629192
H        0.00000000       0.00000000       1.05353535       0.00000000       0.00000000      -6.19629192
2
Properties=species:S:1:pos:R:3:forces:R:3 energy=-4.859692986899165 pbc="F F F"
H        0.00000000       0.00000000       0.00000000       0.00000000       0.00000000       6.15610456
H        0.00000000       0.00000000       1.11313131       0.00000000       0.00000000      -6.15610456
2
Properties=species:S:1:pos:R:3:forces:R:3 energy=-4.500857843367351 pbc="F F F"
H        0.00000000       0.00000000       0.00000000       0.00000000       0.00000000       5.85506821
H        0.00000000       0.00000000       1.17272727       0.00000000       0.00000000      -5.85506821
2
Properties=species:S:1:pos:R:3:forces:R:3 energy=-4.1644013818686405 pbc="F F F"
H        0.00000000       0.00000000       0.00000000       0.00000000       0.00000000       5.42165709
H        0.00000000       0.00000000       1.23232323       0.00000000       0.00000000      -5.42165709
2
Properties=species:S:1:pos:R:3:forces:R:3 energy=-3.855812470767875 pbc="F F F"
H        0.00000000       0.00000000       0.00000000       0.00000000       0.00000000       4.92769766
H        0.00000000       0.00000000       1.29191919       0.00000000       0.00000000      -4.92769766
2
Properties=species:S:1:pos:R:3:forces:R:3 energy=-3.5776184703487814 pbc="F F F"
H        0.00000000       0.00000000       0.00000000       0.00000000       0.00000000       4.40517187
H        0.00000000       0.00000000       1.35151515       0.00000000       0.00000000      -4.40517187
2
Properties=species:S:1:pos:R:3:forces:R:3 energy=-3.3309906423115403 pbc="F F F"
H        0.00000000       0.00000000       0.00000000       0.00000000       0.00000000       3.87054324
H        0.00000000       0.00000000       1.41111111       0.00000000       0.00000000      -3.87054324
2
Properties=species:S:1:pos:R:3:forces:R:3 energy=-3.116247519421521 pbc="F F F"
H        0.00000000       0.00000000       0.00000000       0.00000000       0.00000000       3.33766842
H        0.00000000       0.00000000       1.47070707       0.00000000       0.00000000      -3.33766842
2
Properties=species:S:1:pos:R:3:forces:R:3 energy=-2.9328502998845596 pbc="F F F"
H        0.00000000       0.00000000       0.00000000       0.00000000       0.00000000       2.82090688
H        0.00000000       0.00000000       1.53030303       0.00000000       0.00000000      -2.82090688
2
Properties=species:S:1:pos:R:3:forces:R:3 energy=-2.779420589712235 pbc="F F F"
H        0.00000000       0.00000000       0.00000000       0.00000000       0.00000000       2.33411908
H        0.00000000       0.00000000       1.58989899       0.00000000       0.00000000      -2.33411908
2
Properties=species:S:1:pos:R:3:forces:R:3 energy=-2.6538150582274147 pbc="F F F"
H        0.00000000       0.00000000       0.00000000       0.00000000       0.00000000       1.88890040
H        0.00000000       0.00000000       1.64949495       0.00000000       0.00000000      -1.88890040
2
Properties=species:S:1:pos:R:3:forces:R:3 energy=-2.5532904534193253 pbc="F F F"
H        0.00000000       0.00000000       0.00000000       0.00000000       0.00000000       1.49330103
H        0.00000000       0.00000000       1.70909091       0.00000000       0.00000000      -1.49330103
2
Properties=species:S:1:pos:R:3:forces:R:3 energy=-2.4747529885692496 pbc="F F F"
H        0.00000000       0.00000000       0.00000000       0.00000000       0.00000000       1.15150940
H        0.00000000       0.00000000       1.76868687       0.00000000       0.00000000      -1.15150940
2
Properties=species:S:1:pos:R:3:forces:R:3 energy=-2.414957916420233 pbc="F F F"
H        0.00000000       0.00000000       0.00000000       0.00000000       0.00000000       0.86409038
H        0.00000000       0.00000000       1.82828283       0.00000000       0.00000000      -0.86409038
2
Properties=species:S:1:pos:R:3:forces:R:3 energy=-2.3707236373766496 pbc="F F F"
H        0.00000000       0.00000000       0.00000000       0.00000000       0.00000000       0.62876421
H        0.00000000       0.00000000       1.88787879       0.00000000       0.00000000      -0.62876421
2
Properties=species:S:1:pos:R:3:forces:R:3 energy=-2.339064754494365 pbc="F F F"
H        0.00000000       0.00000000       0.00000000       0.00000000       0.00000000       0.44122186
H        0.00000000       0.00000000       1.94747475       0.00000000       0.00000000      -0.44122186
2
Properties=species:S:1:pos:R:3:forces:R:3 energy=-2.3172926881010025 pbc="F F F"
H        0.00000000       0.00000000       0.00000000       0.00000000       0.00000000       0.29598209
H        0.00000000       0.00000000       2.00707071       0.00000000       0.00000000      -0.29598209
2
Properties=species:S:1:pos:R:3:forces:R:3 energy=-2.3030645638799734 pbc="F F F"
H        0.00000000       0.00000000       0.00000000       0.00000000       0.00000000       0.18704997
H        0.00000000       0.00000000       2.06666667       0.00000000       0.00000000      -0.18704997
2
Properties=species:S:1:pos:R:3:forces:R:3 energy=-2.29439636390619 pbc="F F F"
H        0.00000000       0.00000000       0.00000000       0.00000000       0.00000000       0.10841154
H        0.00000000       0.00000000       2.12626263       0.00000000       0.00000000      -0.10841154
2
Properties=species:S:1:pos:R:3:forces:R:3 energy=-2.289654354664598 pbc="F F F"
H        0.00000000       0.00000000       0.00000000       0.00000000       0.00000000       0.05435847
H        0.00000000       0.00000000       2.18585859       0.00000000       0.00000000      -0.05435847
2
Properties=species:S:1:pos:R:3:forces:R:3 energy=-2.28753269510665 pbc="F F F"
H        0.00000000       0.00000000       0.00000000       0.00000000       0.00000000       0.01967532
H        0.00000000       0.00000000       2.24545455       0.00000000       0.00000000      -0.01967532
2
Properties=species:S:1:pos:R:3:forces:R:3 energy=-2.2870174734587283 pbc="F F F"
H        0.00000000       0.00000000       0.00000000       0.00000000       0.00000000      -0.00028885
H        0.00000000       0.00000000       2.30505051       0.00000000       0.00000000       0.00028885
2
Properties=species:S:1:pos:R:3:forces:R:3 energy=-2.287355727854015 pbc="F F F"
H        0.00000000       0.00000000       0.00000000       0.00000000       0.00000000      -0.00958125
H        0.00000000       0.00000000       2.36464646       0.00000000       0.00000000       0.00958125
2
Properties=species:S:1:pos:R:3:forces:R:3 energy=-2.2880163884511204 pbc="F F F"
H        0.00000000       0.00000000       0.00000000       0.00000000       0.00000000      -0.01164313
H        0.00000000       0.00000000       2.42424242       0.00000000       0.00000000       0.01164313
2
Properties=species:S:1:pos:R:3:forces:R:3 energy=-2.288656427935517 pbc="F F F"
H        0.00000000       0.00000000       0.00000000       0.00000000       0.00000000      -0.00932113
H        0.00000000       0.00000000       2.48383838       0.00000000       0.00000000       0.00932113
2
Properties=species:S:1:pos:R:3:forces:R:3 energy=-2.289085374769138 pbc="F F F"
H        0.00000000       0.00000000       0.00000000       0.00000000       0.00000000      -0.00486670
H        0.00000000       0.00000000       2.54343434       0.00000000       0.00000000       0.00486670
2
Properties=species:S:1:pos:R:3:forces:R:3 energy=-2.289228117120198 pbc="F F F"
H        0.00000000       0.00000000       0.00000000       0.00000000       0.00000000       0.00005276
H        0.00000000       0.00000000       2.60303030       0.00000000       0.00000000      -0.00005276
2
Properties=species:S:1:pos:R:3:forces:R:3 energy=-2.289092274759875 pbc="F F F"
H        0.00000000       0.00000000       0.00000000       0.00000000       0.00000000       0.00432934
H        0.00000000       0.00000000       2.66262626       0.00000000       0.00000000      -0.00432934
2
Properties=species:S:1:pos:R:3:forces:R:3 energy=-2.288736443853845 pbc="F F F"
H        0.00000000       0.00000000       0.00000000       0.00000000       0.00000000       0.00736572
H        0.00000000       0.00000000       2.72222222       0.00000000       0.00000000      -0.00736572
2
Properties=species:S:1:pos:R:3:forces:R:3 energy=-2.2882423312908853 pbc="F F F"
H        0.00000000       0.00000000       0.00000000       0.00000000       0.00000000       0.00899909
H        0.00000000       0.00000000       2.78181818       0.00000000       0.00000000      -0.00899909
2
Properties=species:S:1:pos:R:3:forces:R:3 energy=-2.2876887044932626 pbc="F F F"
H        0.00000000       0.00000000       0.00000000       0.00000000       0.00000000       0.00939355
H        0.00000000       0.00000000       2.84141414       0.00000000       0.00000000      -0.00939355
2
Properties=species:S:1:pos:R:3:forces:R:3 energy=-2.28713992910996 pbc="F F F"
H        0.00000000       0.00000000       0.00000000       0.00000000       0.00000000       0.00892483
H        0.00000000       0.00000000       2.90101010       0.00000000       0.00000000      -0.00892483
2
Properties=species:S:1:pos:R:3:forces:R:3 energy=-2.2866330302650058 pbc="F F F"
H        0.00000000       0.00000000       0.00000000       0.00000000       0.00000000       0.00805579
H        0.00000000       0.00000000       2.96060606       0.00000000       0.00000000      -0.00805579
2
Properties=species:S:1:pos:R:3:forces:R:3 energy=-2.2861788539620935 pbc="F F F"
H        0.00000000       0.00000000       0.00000000       0.00000000       0.00000000       0.00723278
H        0.00000000       0.00000000       3.02020202       0.00000000       0.00000000      -0.00723278
2
Properties=species:S:1:pos:R:3:forces:R:3 energy=-2.285762948096976 pbc="F F F"
H        0.00000000       0.00000000       0.00000000       0.00000000       0.00000000       0.00680764
H        0.00000000       0.00000000       3.07979798       0.00000000       0.00000000      -0.00680764
2
Properties=species:S:1:pos:R:3:forces:R:3 energy=-2.2853550562370435 pbc="F F F"
H        0.00000000       0.00000000       0.00000000       0.00000000       0.00000000       0.00699830
H        0.00000000       0.00000000       3.13939394       0.00000000       0.00000000      -0.00699830
2
Properties=species:S:1:pos:R:3:forces:R:3 energy=-2.2849150357161787 pbc="F F F"
H        0.00000000       0.00000000       0.00000000       0.00000000       0.00000000       0.00788140
H        0.00000000       0.00000000       3.19898990       0.00000000       0.00000000      -0.00788140
2
Properties=species:S:1:pos:R:3:forces:R:3 energy=-2.2844023448807 pbc="F F F"
H        0.00000000       0.00000000       0.00000000       0.00000000       0.00000000       0.00941633
H        0.00000000       0.00000000       3.25858586       0.00000000       0.00000000      -0.00941633
2
Properties=species:S:1:pos:R:3:forces:R:3 energy=-2.283782239992529 pbc="F F F"
H        0.00000000       0.00000000       0.00000000       0.00000000       0.00000000       0.01148171
H        0.00000000       0.00000000       3.31818182       0.00000000       0.00000000      -0.01148171
2
Properties=species:S:1:pos:R:3:forces:R:3 energy=-2.2830264556388853 pbc="F F F"
H        0.00000000       0.00000000       0.00000000       0.00000000       0.00000000       0.01392557
H        0.00000000       0.00000000       3.37777778       0.00000000       0.00000000      -0.01392557
2
Properties=species:S:1:pos:R:3:forces:R:3 energy=-2.2821175095319646 pbc="F F F"
H        0.00000000       0.00000000       0.00000000       0.00000000       0.00000000       0.01660892
H        0.00000000       0.00000000       3.43737374       0.00000000       0.00000000      -0.01660892
2
Properties=species:S:1:pos:R:3:forces:R:3 energy=-2.2810439299795897 pbc="F F F"
H        0.00000000       0.00000000       0.00000000       0.00000000       0.00000000       0.01943656
H        0.00000000       0.00000000       3.49696970       0.00000000       0.00000000      -0.01943656
2
Properties=species:S:1:pos:R:3:forces:R:3 energy=-2.279798848142459 pbc="F F F"
H        0.00000000       0.00000000       0.00000000       0.00000000       0.00000000       0.02237432
H        0.00000000       0.00000000       3.55656566       0.00000000       0.00000000      -0.02237432
2
Properties=species:S:1:pos:R:3:forces:R:3 energy=-2.2783745290580035 pbc="F F F"
H        0.00000000       0.00000000       0.00000000       0.00000000       0.00000000       0.02544183
H        0.00000000       0.00000000       3.61616162       0.00000000       0.00000000      -0.02544183
2
Properties=species:S:1:pos:R:3:forces:R:3 energy=-2.276762865108611 pbc="F F F"
H        0.00000000       0.00000000       0.00000000       0.00000000       0.00000000       0.02868248
H        0.00000000       0.00000000       3.67575758       0.00000000       0.00000000      -0.02868248
2
Properties=species:S:1:pos:R:3:forces:R:3 energy=-2.2749520661769482 pbc="F F F"
H        0.00000000       0.00000000       0.00000000       0.00000000       0.00000000       0.03211203
H        0.00000000       0.00000000       3.73535354       0.00000000       0.00000000      -0.03211203
2
Properties=species:S:1:pos:R:3:forces:R:3 energy=-2.272932639810328 pbc="F F F"
H        0.00000000       0.00000000       0.00000000       0.00000000       0.00000000       0.03566691
H        0.00000000       0.00000000       3.79494949       0.00000000       0.00000000      -0.03566691
2
Properties=species:S:1:pos:R:3:forces:R:3 energy=-2.2707019400816546 pbc="F F F"
H        0.00000000       0.00000000       0.00000000       0.00000000       0.00000000       0.03916475
H        0.00000000       0.00000000       3.85454545       0.00000000       0.00000000      -0.03916475
2
Properties=species:S:1:pos:R:3:forces:R:3 energy=-2.2682715765823627 pbc="F F F"
H        0.00000000       0.00000000       0.00000000       0.00000000       0.00000000       0.04230809
H        0.00000000       0.00000000       3.91414141       0.00000000       0.00000000      -0.04230809
2
Properties=species:S:1:pos:R:3:forces:R:3 energy=-2.2656736283526295 pbc="F F F"
H        0.00000000       0.00000000       0.00000000       0.00000000       0.00000000       0.04473068
H        0.00000000       0.00000000       3.97373737       0.00000000       0.00000000      -0.04473068
2
Properties=species:S:1:pos:R:3:forces:R:3 energy=-2.2629613740852723 pbc="F F F"
H        0.00000000       0.00000000       0.00000000       0.00000000       0.00000000       0.04608825
H        0.00000000       0.00000000       4.03333333       0.00000000       0.00000000      -0.04608825
2
Properties=species:S:1:pos:R:3:forces:R:3 energy=-2.2602057240636015 pbc="F F F"
H        0.00000000       0.00000000       0.00000000       0.00000000       0.00000000       0.04616290
H        0.00000000       0.00000000       4.09292929       0.00000000       0.00000000      -0.04616290
2
Properties=species:S:1:pos:R:3:forces:R:3 energy=-2.257484978358946 pbc="F F F"
H        0.00000000       0.00000000       0.00000000       0.00000000       0.00000000       0.04494049
H        0.00000000       0.00000000       4.15252525       0.00000000       0.00000000      -0.04494049
2
Properties=species:S:1:pos:R:3:forces:R:3 energy=-2.2548710048887104 pbc="F F F"
H        0.00000000       0.00000000       0.00000000       0.00000000       0.00000000       0.04262874
H        0.00000000       0.00000000       4.21212121       0.00000000       0.00000000      -0.04262874
2
Properties=species:S:1:pos:R:3:forces:R:3 energy=-2.252418037405951 pbc="F F F"
H        0.00000000       0.00000000       0.00000000       0.00000000       0.00000000       0.03960653
H        0.00000000       0.00000000       4.27171717       0.00000000       0.00000000      -0.03960653
2
Properties=species:S:1:pos:R:3:forces:R:3 energy=-2.2501555289806623 pbc="F F F"
H        0.00000000       0.00000000       0.00000000       0.00000000       0.00000000       0.03631695
H        0.00000000       0.00000000       4.33131313       0.00000000       0.00000000      -0.03631695
2
Properties=species:S:1:pos:R:3:forces:R:3 energy=-2.248086722032776 pbc="F F F"
H        0.00000000       0.00000000       0.00000000       0.00000000       0.00000000       0.03315251
H        0.00000000       0.00000000       4.39090909       0.00000000       0.00000000      -0.03315251
2
Properties=species:S:1:pos:R:3:forces:R:3 energy=-2.246196280746019 pbc="F F F"
H        0.00000000       0.00000000       0.00000000       0.00000000       0.00000000       0.03037123
H        0.00000000       0.00000000       4.45050505       0.00000000       0.00000000      -0.03037123
2
Properties=species:S:1:pos:R:3:forces:R:3 energy=-2.2444576820933633 pbc="F F F"
H        0.00000000       0.00000000       0.00000000       0.00000000       0.00000000       0.02805570
H        0.00000000       0.00000000       4.51010101       0.00000000       0.00000000      -0.02805570
2
Properties=species:S:1:pos:R:3:forces:R:3 energy=-2.242844182547196 pbc="F F F"
H        0.00000000       0.00000000       0.00000000       0.00000000       0.00000000       0.02613604
H        0.00000000       0.00000000       4.56969697       0.00000000       0.00000000      -0.02613604
2
Properties=species:S:1:pos:R:3:forces:R:3 energy=-2.2413378803116952 pbc="F F F"
H        0.00000000       0.00000000       0.00000000       0.00000000       0.00000000       0.02443861
H        0.00000000       0.00000000       4.62929293       0.00000000       0.00000000      -0.02443861
2
Properties=species:S:1:pos:R:3:forces:R:3 energy=-2.239931381580032 pbc="F F F"
H        0.00000000       0.00000000       0.00000000       0.00000000       0.00000000       0.02274698
H        0.00000000       0.00000000       4.68888889       0.00000000       0.00000000      -0.02274698
2
Properties=species:S:1:pos:R:3:forces:R:3 energy=-2.23863066264626 pbc="F F F"
H        0.00000000       0.00000000       0.00000000       0.00000000       0.00000000       0.02085028
H        0.00000000       0.00000000       4.74848485       0.00000000       0.00000000      -0.02085028
2
Properties=species:S:1:pos:R:3:forces:R:3 energy=-2.2374536359785324 pbc="F F F"
H        0.00000000       0.00000000       0.00000000       0.00000000       0.00000000       0.01858199
H        0.00000000       0.00000000       4.80808081       0.00000000       0.00000000      -0.01858199
2
Properties=species:S:1:pos:R:3:forces:R:3 energy=-2.236425622740959 pbc="F F F"
H        0.00000000       0.00000000       0.00000000       0.00000000       0.00000000       0.01582794
H        0.00000000       0.00000000       4.86767677       0.00000000       0.00000000      -0.01582794
2
Properties=species:S:1:pos:R:3:forces:R:3 energy=-2.235577203883321 pbc="F F F"
H        0.00000000       0.00000000       0.00000000       0.00000000       0.00000000       0.01255643
H        0.00000000       0.00000000       4.92727273       0.00000000       0.00000000      -0.01255643
2
Properties=species:S:1:pos:R:3:forces:R:3 energy=-2.2349375438021424 pbc="F F F"
H        0.00000000       0.00000000       0.00000000       0.00000000       0.00000000       0.00885041
H        0.00000000       0.00000000       4.98686869       0.00000000       0.00000000      -0.00885041
2
Properties=species:S:1:pos:R:3:forces:R:3 energy=-2.234526045319191 pbc="F F F"
H        0.00000000       0.00000000       0.00000000       0.00000000       0.00000000       0.00496996
H        0.00000000       0.00000000       5.04646465       0.00000000       0.00000000      -0.00496996
2
Properties=species:S:1:pos:R:3:forces:R:3 energy=-2.2343394730240713 pbc="F F F"
H        0.00000000       0.00000000       0.00000000       0.00000000       0.00000000       0.00138671
H        0.00000000       0.00000000       5.10606061       0.00000000       0.00000000      -0.00138671
2
Properties=species:S:1:pos:R:3:forces:R:3 energy=-2.2343428937147025 pbc="F F F"
H        0.00000000       0.00000000       0.00000000       0.00000000       0.00000000      -0.00130130
H        0.00000000       0.00000000       5.16565657       0.00000000       0.00000000       0.00130130
2
Properties=species:S:1:pos:R:3:forces:R:3 energy=-2.2344675290956886 pbc="F F F"
H        0.00000000       0.00000000       0.00000000       0.00000000       0.00000000      -0.00264860
H        0.00000000       0.00000000       5.22525253       0.00000000       0.00000000       0.00264860
2
Properties=species:S:1:pos:R:3:forces:R:3 energy=-2.2346336427987303 pbc="F F F"
H        0.00000000       0.00000000       0.00000000       0.00000000       0.00000000      -0.00276909
H        0.00000000       0.00000000       5.28484848       0.00000000       0.00000000       0.00276909
2
Properties=species:S:1:pos:R:3:forces:R:3 energy=-2.2347903563100826 pbc="F F F"
H        0.00000000       0.00000000       0.00000000       0.00000000       0.00000000      -0.00253519
H        0.00000000       0.00000000       5.34444444       0.00000000       0.00000000       0.00253519
2
Properties=species:S:1:pos:R:3:forces:R:3 energy=-2.2349511720147905 pbc="F F F"
H        0.00000000       0.00000000       0.00000000       0.00000000       0.00000000      -0.00303458
H        0.00000000       0.00000000       5.40404040       0.00000000       0.00000000       0.00303458
2
Properties=species:S:1:pos:R:3:forces:R:3 energy=-2.2351651240907677 pbc="F F F"
H        0.00000000       0.00000000       0.00000000       0.00000000       0.00000000      -0.00411322
H        0.00000000       0.00000000       5.46363636       0.00000000       0.00000000       0.00411322
2
Properties=species:S:1:pos:R:3:forces:R:3 energy=-2.2354183109797914 pbc="F F F"
H        0.00000000       0.00000000       0.00000000       0.00000000       0.00000000      -0.00408637
H        0.00000000       0.00000000       5.52323232       0.00000000       0.00000000       0.00408637
2
Properties=species:S:1:pos:R:3:forces:R:3 energy=-2.235616490398124 pbc="F F F"
H        0.00000000       0.00000000       0.00000000       0.00000000       0.00000000      -0.00230504
H        0.00000000       0.00000000       5.58282828       0.00000000       0.00000000       0.00230504
2
Properties=species:S:1:pos:R:3:forces:R:3 energy=-2.2356735315651735 pbc="F F F"
H        0.00000000       0.00000000       0.00000000       0.00000000       0.00000000       0.00039220
H        0.00000000       0.00000000       5.64242424       0.00000000       0.00000000      -0.00039220
2
Properties=species:S:1:pos:R:3:forces:R:3 energy=-2.235590332025407 pbc="F F F"
H        0.00000000       0.00000000       0.00000000       0.00000000       0.00000000       0.00215705
H        0.00000000       0.00000000       5.70202020       0.00000000       0.00000000      -0.00215705
2
Properties=species:S:1:pos:R:3:forces:R:3 energy=-2.2354276369775135 pbc="F F F"
H        0.00000000       0.00000000       0.00000000       0.00000000       0.00000000       0.00338069
H        0.00000000       0.00000000       5.76161616       0.00000000       0.00000000      -0.00338069
2
Properties=species:S:1:pos:R:3:forces:R:3 energy=-2.2351863527517177 pbc="F F F"
H        0.00000000       0.00000000       0.00000000       0.00000000       0.00000000       0.00448952
H        0.00000000       0.00000000       5.82121212       0.00000000       0.00000000      -0.00448952
2
Properties=species:S:1:pos:R:3:forces:R:3 energy=-2.2349408226965033 pbc="F F F"
H        0.00000000       0.00000000       0.00000000       0.00000000       0.00000000       0.00337865
H        0.00000000       0.00000000       5.88080808       0.00000000       0.00000000      -0.00337865
2
Properties=species:S:1:pos:R:3:forces:R:3 energy=-2.23480640158364 pbc="F F F"
H        0.00000000       0.00000000       0.00000000       0.00000000       0.00000000       0.00112686
H        0.00000000       0.00000000       5.94040404       0.00000000       0.00000000      -0.00112686
2
Properties=species:S:1:pos:R:3:forces:R:3 energy=-2.234779953572581 pbc="F F F"
H        0.00000000       0.00000000       0.00000000       0.00000000       0.00000000       0.00010019
H        0.00000000       0.00000000       6.00000000       0.00000000       0.00000000      -0.00010019
