2
Properties=species:S:1:pos:R:3:forces:R:3 energy=55.642776606967246 pbc="F F F"
He       0.00000000       0.00000000       0.00000000       0.00000000       0.00000000    -726.08825684
He       0.00000000       0.00000000       0.18000000       0.00000000       0.00000000     726.08825684
2
Properties=species:S:1:pos:R:3:forces:R:3 energy=26.306957362780466 pbc="F F F"
He       0.00000000       0.00000000       0.00000000       0.00000000       0.00000000    -333.81173706
He       0.00000000       0.00000000       0.23878788       0.00000000       0.00000000     333.81173706
2
Properties=species:S:1:pos:R:3:forces:R:3 energy=12.305314183121233 pbc="F F F"
He       0.00000000       0.00000000       0.00000000       0.00000000       0.00000000    -159.04571533
He       0.00000000       0.00000000       0.29757576       0.00000000       0.00000000     159.04571533
2
Properties=species:S:1:pos:R:3:forces:R:3 energy=6.161836745913711 pbc="F F F"
He       0.00000000       0.00000000       0.00000000       0.00000000       0.00000000     -63.44064331
He       0.00000000       0.00000000       0.35636364       0.00000000       0.00000000      63.44064331
2
Properties=species:S:1:pos:R:3:forces:R:3 energy=3.7210732785406244 pbc="F F F"
He       0.00000000       0.00000000       0.00000000       0.00000000       0.00000000     -24.93877983
He       0.00000000       0.00000000       0.41515152       0.00000000       0.00000000      24.93877983
2
Properties=species:S:1:pos:R:3:forces:R:3 energy=2.866948029806156 pbc="F F F"
He       0.00000000       0.00000000       0.00000000       0.00000000       0.00000000      -6.26916313
He       0.00000000       0.00000000       0.47393939       0.00000000       0.00000000       6.26916313
2
Properties=species:S:1:pos:R:3:forces:R:3 energy=2.7899362295146695 pbc="F F F"
He       0.00000000       0.00000000       0.00000000       0.00000000       0.00000000       2.17134690
He       0.00000000       0.00000000       0.53272727       0.00000000       0.00000000      -2.17134690
2
Properties=species:S:1:pos:R:3:forces:R:3 energy=2.9650346892918438 pbc="F F F"
He       0.00000000       0.00000000       0.00000000       0.00000000       0.00000000       3.46250176
He       0.00000000       0.00000000       0.59151515       0.00000000       0.00000000      -3.46250176
2
Properties=species:S:1:pos:R:3:forces:R:3 energy=3.248761209597237 pbc="F F F"
He       0.00000000       0.00000000       0.00000000       0.00000000       0.00000000       6.56978512
He       0.00000000       0.00000000       0.65030303       0.00000000       0.00000000      -6.56978512
2
Properties=species:S:1:pos:R:3:forces:R:3 energy=3.746954340120335 pbc="F F F"
He       0.00000000       0.00000000       0.00000000       0.00000000       0.00000000      10.09487152
He       0.00000000       0.00000000       0.70909091       0.00000000       0.00000000     -10.09487152
2
Properties=species:S:1:pos:R:3:forces:R:3 energy=4.359244881589658 pbc="F F F"
He       0.00000000       0.00000000       0.00000000       0.00000000       0.00000000       9.81388474
He       0.00000000       0.00000000       0.76787879       0.00000000       0.00000000      -9.81388474
2
Properties=species:S:1:pos:R:3:forces:R:3 energy=4.793775850034421 pbc="F F F"
He       0.00000000       0.00000000       0.00000000       0.00000000       0.00000000       4.28835487
He       0.00000000       0.00000000       0.82666667       0.00000000       0.00000000      -4.28835487
2
Properties=species:S:1:pos:R:3:forces:R:3 energy=4.831913619855761 pbc="F F F"
He       0.00000000       0.00000000       0.00000000       0.00000000       0.00000000      -2.86483645
He       0.00000000       0.00000000       0.88545455       0.00000000       0.00000000       2.86483645
2
Properties=species:S:1:pos:R:3:forces:R:3 energy=4.499784607565998 pbc="F F F"
He       0.00000000       0.00000000       0.00000000       0.00000000       0.00000000      -7.95196342
He       0.00000000       0.00000000       0.94424242       0.00000000       0.00000000       7.95196342
2
Properties=species:S:1:pos:R:3:forces:R:3 energy=3.9526663429827793 pbc="F F F"
He       0.00000000       0.00000000       0.00000000       0.00000000       0.00000000     -10.24063015
He       0.00000000       0.00000000       1.00303030       0.00000000       0.00000000      10.24063015
2
Properties=species:S:1:pos:R:3:forces:R:3 energy=3.335778437863312 pbc="F F F"
He       0.00000000       0.00000000       0.00000000       0.00000000       0.00000000     -10.48751450
He       0.00000000       0.00000000       1.06181818       0.00000000       0.00000000      10.48751450
2
Properties=species:S:1:pos:R:3:forces:R:3 energy=2.7413641433135023 pbc="F F F"
He       0.00000000       0.00000000       0.00000000       0.00000000       0.00000000      -9.61345577
He       0.00000000       0.00000000       1.12060606       0.00000000       0.00000000       9.61345577
2
Properties=species:S:1:pos:R:3:forces:R:3 energy=2.21404165538985 pbc="F F F"
He       0.00000000       0.00000000       0.00000000       0.00000000       0.00000000      -8.29175758
He       0.00000000       0.00000000       1.17939394       0.00000000       0.00000000       8.29175758
2
Properties=species:S:1:pos:R:3:forces:R:3 energy=1.7675426507560514 pbc="F F F"
He       0.00000000       0.00000000       0.00000000       0.00000000       0.00000000      -6.90770149
He       0.00000000       0.00000000       1.23818182       0.00000000       0.00000000       6.90770149
2
Properties=species:S:1:pos:R:3:forces:R:3 energy=1.3995494333793081 pbc="F F F"
He       0.00000000       0.00000000       0.00000000       0.00000000       0.00000000      -5.63818169
He       0.00000000       0.00000000       1.29696970       0.00000000       0.00000000       5.63818169
2
Properties=species:S:1:pos:R:3:forces:R:3 energy=1.1011771986530852 pbc="F F F"
He       0.00000000       0.00000000       0.00000000       0.00000000       0.00000000      -4.54322338
He       0.00000000       0.00000000       1.35575758       0.00000000       0.00000000       4.54322338
2
Properties=species:S:1:pos:R:3:forces:R:3 energy=0.8618325892815504 pbc="F F F"
He       0.00000000       0.00000000       0.00000000       0.00000000       0.00000000      -3.62852359
He       0.00000000       0.00000000       1.41454545       0.00000000       0.00000000       3.62852359
2
Properties=species:S:1:pos:R:3:forces:R:3 energy=0.6713234605930813 pbc="F F F"
He       0.00000000       0.00000000       0.00000000       0.00000000       0.00000000      -2.87833214
He       0.00000000       0.00000000       1.47333333       0.00000000       0.00000000       2.87833214
2
Properties=species:S:1:pos:R:3:forces:R:3 energy=0.5206224759414678 pbc="F F F"
He       0.00000000       0.00000000       0.00000000       0.00000000       0.00000000      -2.27035689
He       0.00000000       0.00000000       1.53212121       0.00000000       0.00000000       2.27035689
2
Properties=species:S:1:pos:R:3:forces:R:3 energy=0.402043894181309 pbc="F F F"
He       0.00000000       0.00000000       0.00000000       0.00000000       0.00000000      -1.78187966
He       0.00000000       0.00000000       1.59090909       0.00000000       0.00000000       1.78187966
2
Properties=species:S:1:pos:R:3:forces:R:3 energy=0.30918637722945175 pbc="F F F"
He       0.00000000       0.00000000       0.00000000       0.00000000       0.00000000      -1.39206111
He       0.00000000       0.00000000       1.64969697       0.00000000       0.00000000       1.39206111
2
Properties=species:S:1:pos:R:3:forces:R:3 energy=0.23679369341618414 pbc="F F F"
He       0.00000000       0.00000000       0.00000000       0.00000000       0.00000000      -1.08273244
He       0.00000000       0.00000000       1.70848485       0.00000000       0.00000000       1.08273244
2
Properties=species:S:1:pos:R:3:forces:R:3 energy=0.18060808728724337 pbc="F F F"
He       0.00000000       0.00000000       0.00000000       0.00000000       0.00000000      -0.83854109
He       0.00000000       0.00000000       1.76727273       0.00000000       0.00000000       0.83854109
2
Properties=species:S:1:pos:R:3:forces:R:3 energy=0.13718076307195257 pbc="F F F"
He       0.00000000       0.00000000       0.00000000       0.00000000       0.00000000      -0.64667654
He       0.00000000       0.00000000       1.82606061       0.00000000       0.00000000       0.64667654
2
Properties=species:S:1:pos:R:3:forces:R:3 energy=0.10375478828973178 pbc="F F F"
He       0.00000000       0.00000000       0.00000000       0.00000000       0.00000000      -0.49665940
He       0.00000000       0.00000000       1.88484848       0.00000000       0.00000000       0.49665940
2
Properties=species:S:1:pos:R:3:forces:R:3 energy=0.07813295822418129 pbc="F F F"
He       0.00000000       0.00000000       0.00000000       0.00000000       0.00000000      -0.37996545
He       0.00000000       0.00000000       1.94363636       0.00000000       0.00000000       0.37996545
2
Properties=species:S:1:pos:R:3:forces:R:3 energy=0.05856356955053489 pbc="F F F"
He       0.00000000       0.00000000       0.00000000       0.00000000       0.00000000      -0.28969008
He       0.00000000       0.00000000       2.00242424       0.00000000       0.00000000       0.28969008
2
Properties=species:S:1:pos:R:3:forces:R:3 energy=0.04366382888809329 pbc="F F F"
He       0.00000000       0.00000000       0.00000000       0.00000000       0.00000000      -0.22027682
He       0.00000000       0.00000000       2.06121212       0.00000000       0.00000000       0.22027682
2
Properties=species:S:1:pos:R:3:forces:R:3 energy=0.032343925902748545 pbc="F F F"
He       0.00000000       0.00000000       0.00000000       0.00000000       0.00000000      -0.16725381
He       0.00000000       0.00000000       2.12000000       0.00000000       0.00000000       0.16725381
2
Properties=species:S:1:pos:R:3:forces:R:3 energy=0.023749214766915407 pbc="F F F"
He       0.00000000       0.00000000       0.00000000       0.00000000       0.00000000      -0.12702160
He       0.00000000       0.00000000       2.17878788       0.00000000       0.00000000       0.12702160
2
Properties=species:S:1:pos:R:3:forces:R:3 energy=0.01721557018934824 pbc="F F F"
He       0.00000000       0.00000000       0.00000000       0.00000000       0.00000000      -0.09668925
He       0.00000000       0.00000000       2.23757576       0.00000000       0.00000000       0.09668925
2
Properties=species:S:1:pos:R:3:forces:R:3 energy=0.012232503440887877 pbc="F F F"
He       0.00000000       0.00000000       0.00000000       0.00000000       0.00000000      -0.07393775
He       0.00000000       0.00000000       2.29636364       0.00000000       0.00000000       0.07393775
2
Properties=species:S:1:pos:R:3:forces:R:3 energy=0.008410542451677938 pbc="F F F"
He       0.00000000       0.00000000       0.00000000       0.00000000       0.00000000      -0.05690494
He       0.00000000       0.00000000       2.35515152       0.00000000       0.00000000       0.05690494
2
Properties=species:S:1:pos:R:3:forces:R:3 energy=0.005458850428542084 pbc="F F F"
He       0.00000000       0.00000000       0.00000000       0.00000000       0.00000000      -0.04411366
He       0.00000000       0.00000000       2.41393939       0.00000000       0.00000000       0.04411366
2
Properties=species:S:1:pos:R:3:forces:R:3 energy=0.003163721561988371 pbc="F F F"
He       0.00000000       0.00000000       0.00000000       0.00000000       0.00000000      -0.03439967
He       0.00000000       0.00000000       2.47272727       0.00000000       0.00000000       0.03439967
2
Properties=species:S:1:pos:R:3:forces:R:3 energy=0.0013716954035361214 pbc="F F F"
He       0.00000000       0.00000000       0.00000000       0.00000000       0.00000000      -0.02686692
He       0.00000000       0.00000000       2.53151515       0.00000000       0.00000000       0.02686692
2
Properties=species:S:1:pos:R:3:forces:R:3 energy=-2.478303260294314e-05 pbc="F F F"
He       0.00000000       0.00000000       0.00000000       0.00000000       0.00000000      -0.02084556
He       0.00000000       0.00000000       2.59030303       0.00000000       0.00000000       0.02084556
2
Properties=species:S:1:pos:R:3:forces:R:3 energy=-0.0010995778999615896 pbc="F F F"
He       0.00000000       0.00000000       0.00000000       0.00000000       0.00000000      -0.01586146
He       0.00000000       0.00000000       2.64909091       0.00000000       0.00000000       0.01586146
2
Properties=species:S:1:pos:R:3:forces:R:3 energy=-0.001903739065357307 pbc="F F F"
He       0.00000000       0.00000000       0.00000000       0.00000000       0.00000000      -0.01160530
He       0.00000000       0.00000000       2.70787879       0.00000000       0.00000000       0.01160530
2
Properties=species:S:1:pos:R:3:forces:R:3 energy=-0.0024747224982681884 pbc="F F F"
He       0.00000000       0.00000000       0.00000000       0.00000000       0.00000000      -0.00790215
He       0.00000000       0.00000000       2.76666667       0.00000000       0.00000000       0.00790215
2
Properties=species:S:1:pos:R:3:forces:R:3 energy=-0.002842293430221818 pbc="F F F"
He       0.00000000       0.00000000       0.00000000       0.00000000       0.00000000      -0.00468221
He       0.00000000       0.00000000       2.82545455       0.00000000       0.00000000       0.00468221
2
Properties=species:S:1:pos:R:3:forces:R:3 energy=-0.0030346869820183247 pbc="F F F"
He       0.00000000       0.00000000       0.00000000       0.00000000       0.00000000      -0.00194485
He       0.00000000       0.00000000       2.88424242       0.00000000       0.00000000       0.00194485
2
Properties=species:S:1:pos:R:3:forces:R:3 energy=-0.0030811128969052025 pbc="F F F"
He       0.00000000       0.00000000       0.00000000       0.00000000       0.00000000       0.00027574
He       0.00000000       0.00000000       2.94303030       0.00000000       0.00000000      -0.00027574
2
Properties=species:S:1:pos:R:3:forces:R:3 energy=-0.0030130405005555283 pbc="F F F"
He       0.00000000       0.00000000       0.00000000       0.00000000       0.00000000       0.00194560
He       0.00000000       0.00000000       3.00181818       0.00000000       0.00000000      -0.00194560
2
Properties=species:S:1:pos:R:3:forces:R:3 energy=-0.002863277108443769 pbc="F F F"
He       0.00000000       0.00000000       0.00000000       0.00000000       0.00000000       0.00306055
He       0.00000000       0.00000000       3.06060606       0.00000000       0.00000000      -0.00306055
2
Properties=species:S:1:pos:R:3:forces:R:3 energy=-0.0026632456969631754 pbc="F F F"
He       0.00000000       0.00000000       0.00000000       0.00000000       0.00000000       0.00366372
He       0.00000000       0.00000000       3.11939394       0.00000000       0.00000000      -0.00366372
2
Properties=species:S:1:pos:R:3:forces:R:3 energy=-0.0024406642549636513 pbc="F F F"
He       0.00000000       0.00000000       0.00000000       0.00000000       0.00000000       0.00385158
He       0.00000000       0.00000000       3.17818182       0.00000000       0.00000000      -0.00385158
2
Properties=species:S:1:pos:R:3:forces:R:3 energy=-0.0022158415637981753 pbc="F F F"
He       0.00000000       0.00000000       0.00000000       0.00000000       0.00000000       0.00376100
He       0.00000000       0.00000000       3.23696970       0.00000000       0.00000000      -0.00376100
2
Properties=species:S:1:pos:R:3:forces:R:3 energy=-0.0020008786559615375 pbc="F F F"
He       0.00000000       0.00000000       0.00000000       0.00000000       0.00000000       0.00354644
He       0.00000000       0.00000000       3.29575758       0.00000000       0.00000000      -0.00354644
2
Properties=species:S:1:pos:R:3:forces:R:3 energy=-0.0017986185672107802 pbc="F F F"
He       0.00000000       0.00000000       0.00000000       0.00000000       0.00000000       0.00334718
He       0.00000000       0.00000000       3.35454545       0.00000000       0.00000000      -0.00334718
2
Properties=species:S:1:pos:R:3:forces:R:3 energy=-0.0016050516126070889 pbc="F F F"
He       0.00000000       0.00000000       0.00000000       0.00000000       0.00000000       0.00326033
He       0.00000000       0.00000000       3.41333333       0.00000000       0.00000000      -0.00326033
2
Properties=species:S:1:pos:R:3:forces:R:3 energy=-0.0014121762385696985 pbc="F F F"
He       0.00000000       0.00000000       0.00000000       0.00000000       0.00000000       0.00332670
He       0.00000000       0.00000000       3.47212121       0.00000000       0.00000000      -0.00332670
2
Properties=species:S:1:pos:R:3:forces:R:3 energy=-0.0012112210632848831 pbc="F F F"
He       0.00000000       0.00000000       0.00000000       0.00000000       0.00000000       0.00353035
He       0.00000000       0.00000000       3.53090909       0.00000000       0.00000000      -0.00353035
2
Properties=species:S:1:pos:R:3:forces:R:3 energy=-0.0009955192394365566 pbc="F F F"
He       0.00000000       0.00000000       0.00000000       0.00000000       0.00000000       0.00381454
He       0.00000000       0.00000000       3.58969697       0.00000000       0.00000000      -0.00381454
2
Properties=species:S:1:pos:R:3:forces:R:3 energy=-0.0007625226167961591 pbc="F F F"
He       0.00000000       0.00000000       0.00000000       0.00000000       0.00000000       0.00410638
He       0.00000000       0.00000000       3.64848485       0.00000000       0.00000000      -0.00410638
2
Properties=species:S:1:pos:R:3:forces:R:3 energy=-0.0005139359230451419 pbc="F F F"
He       0.00000000       0.00000000       0.00000000       0.00000000       0.00000000       0.00433794
He       0.00000000       0.00000000       3.70727273       0.00000000       0.00000000      -0.00433794
2
Properties=species:S:1:pos:R:3:forces:R:3 energy=-0.0002546295269308842 pbc="F F F"
He       0.00000000       0.00000000       0.00000000       0.00000000       0.00000000       0.00446333
He       0.00000000       0.00000000       3.76606061       0.00000000       0.00000000      -0.00446333
2
Properties=species:S:1:pos:R:3:forces:R:3 energy=8.387516455350002e-06 pbc="F F F"
He       0.00000000       0.00000000       0.00000000       0.00000000       0.00000000       0.00446336
He       0.00000000       0.00000000       3.82484848       0.00000000       0.00000000      -0.00446336
2
Properties=species:S:1:pos:R:3:forces:R:3 energy=0.0002677666224479098 pbc="F F F"
He       0.00000000       0.00000000       0.00000000       0.00000000       0.00000000       0.00434312
He       0.00000000       0.00000000       3.88363636       0.00000000       0.00000000      -0.00434312
2
Properties=species:S:1:pos:R:3:forces:R:3 energy=0.0005171356064339174 pbc="F F F"
He       0.00000000       0.00000000       0.00000000       0.00000000       0.00000000       0.00412486
He       0.00000000       0.00000000       3.94242424       0.00000000       0.00000000      -0.00412486
2
Properties=species:S:1:pos:R:3:forces:R:3 energy=0.0007514160985244829 pbc="F F F"
He       0.00000000       0.00000000       0.00000000       0.00000000       0.00000000       0.00383855
He       0.00000000       0.00000000       4.00121212       0.00000000       0.00000000      -0.00383855
2
Properties=species:S:1:pos:R:3:forces:R:3 energy=0.000967643318337894 pbc="F F F"
He       0.00000000       0.00000000       0.00000000       0.00000000       0.00000000       0.00351355
He       0.00000000       0.00000000       4.06000000       0.00000000       0.00000000      -0.00351355
2
Properties=species:S:1:pos:R:3:forces:R:3 energy=0.0011641953199175072 pbc="F F F"
He       0.00000000       0.00000000       0.00000000       0.00000000       0.00000000       0.00317125
He       0.00000000       0.00000000       4.11878788       0.00000000       0.00000000      -0.00317125
2
Properties=species:S:1:pos:R:3:forces:R:3 energy=0.0013403421876392496 pbc="F F F"
He       0.00000000       0.00000000       0.00000000       0.00000000       0.00000000       0.00282070
He       0.00000000       0.00000000       4.17757576       0.00000000       0.00000000      -0.00282070
2
Properties=species:S:1:pos:R:3:forces:R:3 energy=0.0014956853566557985 pbc="F F F"
He       0.00000000       0.00000000       0.00000000       0.00000000       0.00000000       0.00246026
He       0.00000000       0.00000000       4.23636364       0.00000000       0.00000000      -0.00246026
2
Properties=species:S:1:pos:R:3:forces:R:3 energy=0.0016292948085508538 pbc="F F F"
He       0.00000000       0.00000000       0.00000000       0.00000000       0.00000000       0.00208194
He       0.00000000       0.00000000       4.29515152       0.00000000       0.00000000      -0.00208194
2
Properties=species:S:1:pos:R:3:forces:R:3 energy=0.0017400097900205581 pbc="F F F"
He       0.00000000       0.00000000       0.00000000       0.00000000       0.00000000       0.00168168
He       0.00000000       0.00000000       4.35393939       0.00000000       0.00000000      -0.00168168
2
Properties=species:S:1:pos:R:3:forces:R:3 energy=0.0018267122293264548 pbc="F F F"
He       0.00000000       0.00000000       0.00000000       0.00000000       0.00000000       0.00126587
He       0.00000000       0.00000000       4.41272727       0.00000000       0.00000000      -0.00126587
2
Properties=species:S:1:pos:R:3:forces:R:3 energy=0.001889016148315609 pbc="F F F"
He       0.00000000       0.00000000       0.00000000       0.00000000       0.00000000       0.00085658
He       0.00000000       0.00000000       4.47151515       0.00000000       0.00000000      -0.00085658
2
Properties=species:S:1:pos:R:3:forces:R:3 energy=0.001928175860515669 pbc="F F F"
He       0.00000000       0.00000000       0.00000000       0.00000000       0.00000000       0.00048757
He       0.00000000       0.00000000       4.53030303       0.00000000       0.00000000      -0.00048757
2
Properties=species:S:1:pos:R:3:forces:R:3 energy=0.0019478188270846985 pbc="F F F"
He       0.00000000       0.00000000       0.00000000       0.00000000       0.00000000       0.00019683
He       0.00000000       0.00000000       4.58909091       0.00000000       0.00000000      -0.00019683
2
Properties=species:S:1:pos:R:3:forces:R:3 energy=0.001953537387136951 pbc="F F F"
He       0.00000000       0.00000000       0.00000000       0.00000000       0.00000000       0.00001609
He       0.00000000       0.00000000       4.64787879       0.00000000       0.00000000      -0.00001609
2
Properties=species:S:1:pos:R:3:forces:R:3 energy=0.001952207950847677 pbc="F F F"
He       0.00000000       0.00000000       0.00000000       0.00000000       0.00000000      -0.00003781
He       0.00000000       0.00000000       4.70666667       0.00000000       0.00000000       0.00003781
2
Properties=species:S:1:pos:R:3:forces:R:3 energy=0.0019514926435375787 pbc="F F F"
He       0.00000000       0.00000000       0.00000000       0.00000000       0.00000000       0.00003248
He       0.00000000       0.00000000       4.76545455       0.00000000       0.00000000      -0.00003248
2
Properties=species:S:1:pos:R:3:forces:R:3 energy=0.0019580961397666903 pbc="F F F"
He       0.00000000       0.00000000       0.00000000       0.00000000       0.00000000       0.00020783
He       0.00000000       0.00000000       4.82424242       0.00000000       0.00000000      -0.00020783
2
Properties=species:S:1:pos:R:3:forces:R:3 energy=0.0019773015003065296 pbc="F F F"
He       0.00000000       0.00000000       0.00000000       0.00000000       0.00000000       0.00045319
He       0.00000000       0.00000000       4.88303030       0.00000000       0.00000000      -0.00045319
2
Properties=species:S:1:pos:R:3:forces:R:3 energy=0.0020118314267729117 pbc="F F F"
He       0.00000000       0.00000000       0.00000000       0.00000000       0.00000000       0.00072040
He       0.00000000       0.00000000       4.94181818       0.00000000       0.00000000      -0.00072040
2
Properties=species:S:1:pos:R:3:forces:R:3 energy=0.002061193395645485 pbc="F F F"
He       0.00000000       0.00000000       0.00000000       0.00000000       0.00000000       0.00094526
He       0.00000000       0.00000000       5.00060606       0.00000000       0.00000000      -0.00094526
2
Properties=species:S:1:pos:R:3:forces:R:3 energy=0.0021204827872974563 pbc="F F F"
He       0.00000000       0.00000000       0.00000000       0.00000000       0.00000000       0.00104282
He       0.00000000       0.00000000       5.05939394       0.00000000       0.00000000      -0.00104282
2
Properties=species:S:1:pos:R:3:forces:R:3 energy=0.0021793233834802297 pbc="F F F"
He       0.00000000       0.00000000       0.00000000       0.00000000       0.00000000       0.00091187
He       0.00000000       0.00000000       5.11818182       0.00000000       0.00000000      -0.00091187
2
Properties=species:S:1:pos:R:3:forces:R:3 energy=0.002221558152760751 pbc="F F F"
He       0.00000000       0.00000000       0.00000000       0.00000000       0.00000000       0.00046981
He       0.00000000       0.00000000       5.17696970       0.00000000       0.00000000      -0.00046981
2
Properties=species:S:1:pos:R:3:forces:R:3 energy=0.002228454194454747 pbc="F F F"
He       0.00000000       0.00000000       0.00000000       0.00000000       0.00000000      -0.00027802
He       0.00000000       0.00000000       5.23575758       0.00000000       0.00000000       0.00027802
2
Properties=species:S:1:pos:R:3:forces:R:3 energy=0.0021860438632601027 pbc="F F F"
He       0.00000000       0.00000000       0.00000000       0.00000000       0.00000000      -0.00116372
He       0.00000000       0.00000000       5.29454545       0.00000000       0.00000000       0.00116372
2
Properties=species:S:1:pos:R:3:forces:R:3 energy=0.002095551248024037 pbc="F F F"
He       0.00000000       0.00000000       0.00000000       0.00000000       0.00000000      -0.00184789
He       0.00000000       0.00000000       5.35333333       0.00000000       0.00000000       0.00184789
2
Properties=species:S:1:pos:R:3:forces:R:3 energy=0.001980013728225693 pbc="F F F"
He       0.00000000       0.00000000       0.00000000       0.00000000       0.00000000      -0.00196687
He       0.00000000       0.00000000       5.41212121       0.00000000       0.00000000       0.00196687
2
Properties=species:S:1:pos:R:3:forces:R:3 energy=0.001877667582980862 pbc="F F F"
He       0.00000000       0.00000000       0.00000000       0.00000000       0.00000000      -0.00141940
He       0.00000000       0.00000000       5.47090909       0.00000000       0.00000000       0.00141940
2
Properties=species:S:1:pos:R:3:forces:R:3 energy=0.0018201662240416101 pbc="F F F"
He       0.00000000       0.00000000       0.00000000       0.00000000       0.00000000      -0.00052269
He       0.00000000       0.00000000       5.52969697       0.00000000       0.00000000       0.00052269
2
Properties=species:S:1:pos:R:3:forces:R:3 energy=0.0018106865494374735 pbc="F F F"
He       0.00000000       0.00000000       0.00000000       0.00000000       0.00000000       0.00009068
He       0.00000000       0.00000000       5.58848485       0.00000000       0.00000000      -0.00009068
2
Properties=species:S:1:pos:R:3:forces:R:3 energy=0.0018166024523308736 pbc="F F F"
He       0.00000000       0.00000000       0.00000000       0.00000000       0.00000000       0.00004306
He       0.00000000       0.00000000       5.64727273       0.00000000       0.00000000      -0.00004306
2
Properties=species:S:1:pos:R:3:forces:R:3 energy=0.0018196766341220933 pbc="F F F"
He       0.00000000       0.00000000       0.00000000       0.00000000       0.00000000       0.00015740
He       0.00000000       0.00000000       5.70606061       0.00000000       0.00000000      -0.00015740
2
Properties=species:S:1:pos:R:3:forces:R:3 energy=0.0018411337841248204 pbc="F F F"
He       0.00000000       0.00000000       0.00000000       0.00000000       0.00000000       0.00054068
He       0.00000000       0.00000000       5.76484848       0.00000000       0.00000000      -0.00054068
2
Properties=species:S:1:pos:R:3:forces:R:3 energy=0.0018746826663418325 pbc="F F F"
He       0.00000000       0.00000000       0.00000000       0.00000000       0.00000000       0.00053559
He       0.00000000       0.00000000       5.82363636       0.00000000       0.00000000      -0.00053559
2
Properties=species:S:1:pos:R:3:forces:R:3 energy=0.0018998708295387917 pbc="F F F"
He       0.00000000       0.00000000       0.00000000       0.00000000       0.00000000       0.00031257
He       0.00000000       0.00000000       5.88242424       0.00000000       0.00000000      -0.00031257
2
Properties=species:S:1:pos:R:3:forces:R:3 energy=0.0019117647496346055 pbc="F F F"
He       0.00000000       0.00000000       0.00000000       0.00000000       0.00000000       0.00010352
He       0.00000000       0.00000000       5.94121212       0.00000000       0.00000000      -0.00010352
2
Properties=species:S:1:pos:R:3:forces:R:3 energy=0.0019146129817079068 pbc="F F F"
He       0.00000000       0.00000000       0.00000000       0.00000000       0.00000000       0.00002058
He       0.00000000       0.00000000       6.00000000       0.00000000       0.00000000      -0.00002058
