2
Properties=species:S:1:pos:R:3:forces:R:3 energy=55.642776606967246 pbc="F F F"
He       0.00000000       0.00000000       0.00000000       0.00000000       0.00000000    -726.08825684
He       0.00000000       0.00000000       0.18000000       0.00000000       0.00000000     726.08825684
2
Properties=species:S:1:pos:R:3:forces:R:3 energy=26.306957362780466 pbc="F F F"
He       0.00000000       0.00000000       0.00000000       0.00000000       0.00000000    -333.81176758
He       0.00000000       0.00000000       0.23878788       0.00000000       0.00000000     333.81176758
2
Properties=species:S:1:pos:R:3:forces:R:3 energy=12.305314183121233 pbc="F F F"
He       0.00000000       0.00000000       0.00000000       0.00000000       0.00000000    -159.04571533
He       0.00000000       0.00000000       0.29757576       0.00000000       0.00000000     159.04571533
2
Properties=species:S:1:pos:R:3:forces:R:3 energy=6.1618372227508695 pbc="F F F"
He       0.00000000       0.00000000       0.00000000       0.00000000       0.00000000     -63.44065094
He       0.00000000       0.00000000       0.35636364       0.00000000       0.00000000      63.44065094
2
Properties=species:S:1:pos:R:3:forces:R:3 energy=3.721072563284887 pbc="F F F"
He       0.00000000       0.00000000       0.00000000       0.00000000       0.00000000     -24.93877220
He       0.00000000       0.00000000       0.41515152       0.00000000       0.00000000      24.93877220
2
Properties=species:S:1:pos:R:3:forces:R:3 energy=2.8669494603176306 pbc="F F F"
He       0.00000000       0.00000000       0.00000000       0.00000000       0.00000000      -6.26912832
He       0.00000000       0.00000000       0.47393939       0.00000000       0.00000000       6.26912832
2
Properties=species:S:1:pos:R:3:forces:R:3 energy=2.7899362295146695 pbc="F F F"
He       0.00000000       0.00000000       0.00000000       0.00000000       0.00000000       2.17116570
He       0.00000000       0.00000000       0.53272727       0.00000000       0.00000000      -2.17116570
2
Properties=species:S:1:pos:R:3:forces:R:3 energy=2.965035166129002 pbc="F F F"
He       0.00000000       0.00000000       0.00000000       0.00000000       0.00000000       3.46249628
He       0.00000000       0.00000000       0.59151515       0.00000000       0.00000000      -3.46249628
2
Properties=species:S:1:pos:R:3:forces:R:3 energy=3.2487604943414996 pbc="F F F"
He       0.00000000       0.00000000       0.00000000       0.00000000       0.00000000       6.56978559
He       0.00000000       0.00000000       0.65030303       0.00000000       0.00000000      -6.56978559
2
Properties=species:S:1:pos:R:3:forces:R:3 energy=3.746953863283177 pbc="F F F"
He       0.00000000       0.00000000       0.00000000       0.00000000       0.00000000      10.09486866
He       0.00000000       0.00000000       0.70909091       0.00000000       0.00000000     -10.09486866
2
Properties=species:S:1:pos:R:3:forces:R:3 energy=4.35924678893829 pbc="F F F"
He       0.00000000       0.00000000       0.00000000       0.00000000       0.00000000       9.81390476
He       0.00000000       0.00000000       0.76787879       0.00000000       0.00000000      -9.81390476
2
Properties=species:S:1:pos:R:3:forces:R:3 energy=4.793777757383054 pbc="F F F"
He       0.00000000       0.00000000       0.00000000       0.00000000       0.00000000       4.28836060
He       0.00000000       0.00000000       0.82666667       0.00000000       0.00000000      -4.28836060
2
Properties=species:S:1:pos:R:3:forces:R:3 energy=4.831914573530077 pbc="F F F"
He       0.00000000       0.00000000       0.00000000       0.00000000       0.00000000      -2.86482072
He       0.00000000       0.00000000       0.88545455       0.00000000       0.00000000       2.86482072
2
Properties=species:S:1:pos:R:3:forces:R:3 energy=4.499788422263264 pbc="F F F"
He       0.00000000       0.00000000       0.00000000       0.00000000       0.00000000      -7.95194054
He       0.00000000       0.00000000       0.94424242       0.00000000       0.00000000       7.95194054
2
Properties=species:S:1:pos:R:3:forces:R:3 energy=3.9526661045642 pbc="F F F"
He       0.00000000       0.00000000       0.00000000       0.00000000       0.00000000     -10.24062729
He       0.00000000       0.00000000       1.00303030       0.00000000       0.00000000      10.24062729
2
Properties=species:S:1:pos:R:3:forces:R:3 energy=3.3357796299562077 pbc="F F F"
He       0.00000000       0.00000000       0.00000000       0.00000000       0.00000000     -10.48751259
He       0.00000000       0.00000000       1.06181818       0.00000000       0.00000000      10.48751259
2
Properties=species:S:1:pos:R:3:forces:R:3 energy=2.7413667659178724 pbc="F F F"
He       0.00000000       0.00000000       0.00000000       0.00000000       0.00000000      -9.61346054
He       0.00000000       0.00000000       1.12060606       0.00000000       0.00000000       9.61346054
2
Properties=species:S:1:pos:R:3:forces:R:3 energy=2.214042370645587 pbc="F F F"
He       0.00000000       0.00000000       0.00000000       0.00000000       0.00000000      -8.29175854
He       0.00000000       0.00000000       1.17939394       0.00000000       0.00000000       8.29175854
2
Properties=species:S:1:pos:R:3:forces:R:3 energy=1.7675437236396574 pbc="F F F"
He       0.00000000       0.00000000       0.00000000       0.00000000       0.00000000      -6.90770721
He       0.00000000       0.00000000       1.23818182       0.00000000       0.00000000       6.90770721
2
Properties=species:S:1:pos:R:3:forces:R:3 energy=1.3995426384498038 pbc="F F F"
He       0.00000000       0.00000000       0.00000000       0.00000000       0.00000000      -5.63816833
He       0.00000000       0.00000000       1.29696970       0.00000000       0.00000000       5.63816833
2
Properties=species:S:1:pos:R:3:forces:R:3 energy=1.1011752913044524 pbc="F F F"
He       0.00000000       0.00000000       0.00000000       0.00000000       0.00000000      -4.54322052
He       0.00000000       0.00000000       1.35575758       0.00000000       0.00000000       4.54322052
2
Properties=species:S:1:pos:R:3:forces:R:3 energy=0.8618306223282728 pbc="F F F"
He       0.00000000       0.00000000       0.00000000       0.00000000       0.00000000      -3.62851858
He       0.00000000       0.00000000       1.41454545       0.00000000       0.00000000       3.62851858
2
Properties=species:S:1:pos:R:3:forces:R:3 energy=0.6713219108723172 pbc="F F F"
He       0.00000000       0.00000000       0.00000000       0.00000000       0.00000000      -2.87832880
He       0.00000000       0.00000000       1.47333333       0.00000000       0.00000000       2.87832880
2
Properties=species:S:1:pos:R:3:forces:R:3 energy=0.5206194361045843 pbc="F F F"
He       0.00000000       0.00000000       0.00000000       0.00000000       0.00000000      -2.27035141
He       0.00000000       0.00000000       1.53212121       0.00000000       0.00000000       2.27035141
2
Properties=species:S:1:pos:R:3:forces:R:3 energy=0.402043894181309 pbc="F F F"
He       0.00000000       0.00000000       0.00000000       0.00000000       0.00000000      -1.78188026
He       0.00000000       0.00000000       1.59090909       0.00000000       0.00000000       1.78188026
2
Properties=species:S:1:pos:R:3:forces:R:3 energy=0.30918446988081894 pbc="F F F"
He       0.00000000       0.00000000       0.00000000       0.00000000       0.00000000      -1.39205539
He       0.00000000       0.00000000       1.64969697       0.00000000       0.00000000       1.39205539
2
Properties=species:S:1:pos:R:3:forces:R:3 energy=0.23679455768353339 pbc="F F F"
He       0.00000000       0.00000000       0.00000000       0.00000000       0.00000000      -1.08273506
He       0.00000000       0.00000000       1.70848485       0.00000000       0.00000000       1.08273506
2
Properties=species:S:1:pos:R:3:forces:R:3 energy=0.18060795327578705 pbc="F F F"
He       0.00000000       0.00000000       0.00000000       0.00000000       0.00000000      -0.83853877
He       0.00000000       0.00000000       1.76727273       0.00000000       0.00000000       0.83853877
2
Properties=species:S:1:pos:R:3:forces:R:3 energy=0.13718068876413547 pbc="F F F"
He       0.00000000       0.00000000       0.00000000       0.00000000       0.00000000      -0.64667684
He       0.00000000       0.00000000       1.82606061       0.00000000       0.00000000       0.64667684
2
Properties=species:S:1:pos:R:3:forces:R:3 energy=0.10375458712405566 pbc="F F F"
He       0.00000000       0.00000000       0.00000000       0.00000000       0.00000000      -0.49665922
He       0.00000000       0.00000000       1.88484848       0.00000000       0.00000000       0.49665922
2
Properties=species:S:1:pos:R:3:forces:R:3 energy=0.07813298802650367 pbc="F F F"
He       0.00000000       0.00000000       0.00000000       0.00000000       0.00000000      -0.37996557
He       0.00000000       0.00000000       1.94363636       0.00000000       0.00000000       0.37996557
2
Properties=species:S:1:pos:R:3:forces:R:3 energy=0.05856350249530952 pbc="F F F"
He       0.00000000       0.00000000       0.00000000       0.00000000       0.00000000      -0.28968954
He       0.00000000       0.00000000       2.00242424       0.00000000       0.00000000       0.28968954
2
Properties=species:S:1:pos:R:3:forces:R:3 energy=0.04366391456977015 pbc="F F F"
He       0.00000000       0.00000000       0.00000000       0.00000000       0.00000000      -0.22027677
He       0.00000000       0.00000000       2.06121212       0.00000000       0.00000000       0.22027677
2
Properties=species:S:1:pos:R:3:forces:R:3 energy=0.03234406373848959 pbc="F F F"
He       0.00000000       0.00000000       0.00000000       0.00000000       0.00000000      -0.16725361
He       0.00000000       0.00000000       2.12000000       0.00000000       0.00000000       0.16725361
2
Properties=species:S:1:pos:R:3:forces:R:3 energy=0.023748598231371012 pbc="F F F"
He       0.00000000       0.00000000       0.00000000       0.00000000       0.00000000      -0.12701944
He       0.00000000       0.00000000       2.17878788       0.00000000       0.00000000       0.12701944
2
Properties=species:S:1:pos:R:3:forces:R:3 energy=0.017215493820897123 pbc="F F F"
He       0.00000000       0.00000000       0.00000000       0.00000000       0.00000000      -0.09668887
He       0.00000000       0.00000000       2.23757576       0.00000000       0.00000000       0.09668887
2
Properties=species:S:1:pos:R:3:forces:R:3 energy=0.012232611474306532 pbc="F F F"
He       0.00000000       0.00000000       0.00000000       0.00000000       0.00000000      -0.07393774
He       0.00000000       0.00000000       2.29636364       0.00000000       0.00000000       0.07393774
2
Properties=species:S:1:pos:R:3:forces:R:3 energy=0.008410647988112196 pbc="F F F"
He       0.00000000       0.00000000       0.00000000       0.00000000       0.00000000      -0.05690507
He       0.00000000       0.00000000       2.35515152       0.00000000       0.00000000       0.05690507
2
Properties=species:S:1:pos:R:3:forces:R:3 energy=0.005458948217412419 pbc="F F F"
He       0.00000000       0.00000000       0.00000000       0.00000000       0.00000000      -0.04411377
He       0.00000000       0.00000000       2.41393939       0.00000000       0.00000000       0.04411377
2
Properties=species:S:1:pos:R:3:forces:R:3 energy=0.003163721561988371 pbc="F F F"
He       0.00000000       0.00000000       0.00000000       0.00000000       0.00000000      -0.03439974
He       0.00000000       0.00000000       2.47272727       0.00000000       0.00000000       0.03439974
2
Properties=species:S:1:pos:R:3:forces:R:3 energy=0.0013718585829755633 pbc="F F F"
He       0.00000000       0.00000000       0.00000000       0.00000000       0.00000000      -0.02686706
He       0.00000000       0.00000000       2.53151515       0.00000000       0.00000000       0.02686706
2
Properties=species:S:1:pos:R:3:forces:R:3 energy=-2.4739958933867176e-05 pbc="F F F"
He       0.00000000       0.00000000       0.00000000       0.00000000       0.00000000      -0.02084549
He       0.00000000       0.00000000       2.59030303       0.00000000       0.00000000       0.02084549
2
Properties=species:S:1:pos:R:3:forces:R:3 energy=-0.0010995354083691228 pbc="F F F"
He       0.00000000       0.00000000       0.00000000       0.00000000       0.00000000      -0.01586146
He       0.00000000       0.00000000       2.64909091       0.00000000       0.00000000       0.01586146
2
Properties=species:S:1:pos:R:3:forces:R:3 energy=-0.0019037160499653445 pbc="F F F"
He       0.00000000       0.00000000       0.00000000       0.00000000       0.00000000      -0.01160516
He       0.00000000       0.00000000       2.70787879       0.00000000       0.00000000       0.01160516
2
Properties=species:S:1:pos:R:3:forces:R:3 energy=-0.0024746573056879653 pbc="F F F"
He       0.00000000       0.00000000       0.00000000       0.00000000       0.00000000      -0.00790218
He       0.00000000       0.00000000       2.76666667       0.00000000       0.00000000       0.00790218
2
Properties=species:S:1:pos:R:3:forces:R:3 energy=-0.0028423053045846442 pbc="F F F"
He       0.00000000       0.00000000       0.00000000       0.00000000       0.00000000      -0.00468217
He       0.00000000       0.00000000       2.82545455       0.00000000       0.00000000       0.00468217
2
Properties=species:S:1:pos:R:3:forces:R:3 energy=-0.0030346832567280262 pbc="F F F"
He       0.00000000       0.00000000       0.00000000       0.00000000       0.00000000      -0.00194488
He       0.00000000       0.00000000       2.88424242       0.00000000       0.00000000       0.00194488
2
Properties=species:S:1:pos:R:3:forces:R:3 energy=-0.0030810961330988594 pbc="F F F"
He       0.00000000       0.00000000       0.00000000       0.00000000       0.00000000       0.00027562
He       0.00000000       0.00000000       2.94303030       0.00000000       0.00000000      -0.00027562
2
Properties=species:S:1:pos:R:3:forces:R:3 energy=-0.0030130096184189025 pbc="F F F"
He       0.00000000       0.00000000       0.00000000       0.00000000       0.00000000       0.00194567
He       0.00000000       0.00000000       3.00181818       0.00000000       0.00000000      -0.00194567
2
Properties=species:S:1:pos:R:3:forces:R:3 energy=-0.0028632822307179296 pbc="F F F"
He       0.00000000       0.00000000       0.00000000       0.00000000       0.00000000       0.00306055
He       0.00000000       0.00000000       3.06060606       0.00000000       0.00000000      -0.00306055
2
Properties=species:S:1:pos:R:3:forces:R:3 energy=-0.00266323452109228 pbc="F F F"
He       0.00000000       0.00000000       0.00000000       0.00000000       0.00000000       0.00366379
He       0.00000000       0.00000000       3.11939394       0.00000000       0.00000000      -0.00366379
2
Properties=species:S:1:pos:R:3:forces:R:3 energy=-0.0024406938097999336 pbc="F F F"
He       0.00000000       0.00000000       0.00000000       0.00000000       0.00000000       0.00385159
He       0.00000000       0.00000000       3.17818182       0.00000000       0.00000000      -0.00385159
2
Properties=species:S:1:pos:R:3:forces:R:3 energy=-0.002215894183523641 pbc="F F F"
He       0.00000000       0.00000000       0.00000000       0.00000000       0.00000000       0.00376111
He       0.00000000       0.00000000       3.23696970       0.00000000       0.00000000      -0.00376111
2
Properties=species:S:1:pos:R:3:forces:R:3 energy=-0.0020008404717359782 pbc="F F F"
He       0.00000000       0.00000000       0.00000000       0.00000000       0.00000000       0.00354647
He       0.00000000       0.00000000       3.29575758       0.00000000       0.00000000      -0.00354647
2
Properties=species:S:1:pos:R:3:forces:R:3 energy=-0.0017985655166657866 pbc="F F F"
He       0.00000000       0.00000000       0.00000000       0.00000000       0.00000000       0.00334708
He       0.00000000       0.00000000       3.35454545       0.00000000       0.00000000      -0.00334708
2
Properties=species:S:1:pos:R:3:forces:R:3 energy=-0.001605056967711893 pbc="F F F"
He       0.00000000       0.00000000       0.00000000       0.00000000       0.00000000       0.00326021
He       0.00000000       0.00000000       3.41333333       0.00000000       0.00000000      -0.00326021
2
Properties=species:S:1:pos:R:3:forces:R:3 energy=-0.0014122083691985227 pbc="F F F"
He       0.00000000       0.00000000       0.00000000       0.00000000       0.00000000       0.00332679
He       0.00000000       0.00000000       3.47212121       0.00000000       0.00000000      -0.00332679
2
Properties=species:S:1:pos:R:3:forces:R:3 energy=-0.0012111960019143492 pbc="F F F"
He       0.00000000       0.00000000       0.00000000       0.00000000       0.00000000       0.00353038
He       0.00000000       0.00000000       3.53090909       0.00000000       0.00000000      -0.00353038
2
Properties=species:S:1:pos:R:3:forces:R:3 energy=-0.0009955224990655677 pbc="F F F"
He       0.00000000       0.00000000       0.00000000       0.00000000       0.00000000       0.00381462
He       0.00000000       0.00000000       3.58969697       0.00000000       0.00000000      -0.00381462
2
Properties=species:S:1:pos:R:3:forces:R:3 energy=-0.0007625585570542623 pbc="F F F"
He       0.00000000       0.00000000       0.00000000       0.00000000       0.00000000       0.00410625
He       0.00000000       0.00000000       3.64848485       0.00000000       0.00000000      -0.00410625
2
Properties=species:S:1:pos:R:3:forces:R:3 energy=-0.000513929170956476 pbc="F F F"
He       0.00000000       0.00000000       0.00000000       0.00000000       0.00000000       0.00433786
He       0.00000000       0.00000000       3.70727273       0.00000000       0.00000000      -0.00433786
2
Properties=species:S:1:pos:R:3:forces:R:3 energy=-0.00025466247246696123 pbc="F F F"
He       0.00000000       0.00000000       0.00000000       0.00000000       0.00000000       0.00446324
He       0.00000000       0.00000000       3.76606061       0.00000000       0.00000000      -0.00446324
2
Properties=species:S:1:pos:R:3:forces:R:3 energy=8.36656902515197e-06 pbc="F F F"
He       0.00000000       0.00000000       0.00000000       0.00000000       0.00000000       0.00446345
He       0.00000000       0.00000000       3.82484848       0.00000000       0.00000000      -0.00446345
2
Properties=species:S:1:pos:R:3:forces:R:3 energy=0.0002677424080609698 pbc="F F F"
He       0.00000000       0.00000000       0.00000000       0.00000000       0.00000000       0.00434318
He       0.00000000       0.00000000       3.88363636       0.00000000       0.00000000      -0.00434318
2
Properties=species:S:1:pos:R:3:forces:R:3 energy=0.0005171372362484229 pbc="F F F"
He       0.00000000       0.00000000       0.00000000       0.00000000       0.00000000       0.00412489
He       0.00000000       0.00000000       3.94242424       0.00000000       0.00000000      -0.00412489
2
Properties=species:S:1:pos:R:3:forces:R:3 energy=0.0007514462661310068 pbc="F F F"
He       0.00000000       0.00000000       0.00000000       0.00000000       0.00000000       0.00383852
He       0.00000000       0.00000000       4.00121212       0.00000000       0.00000000      -0.00383852
2
Properties=species:S:1:pos:R:3:forces:R:3 energy=0.0009677088601640826 pbc="F F F"
He       0.00000000       0.00000000       0.00000000       0.00000000       0.00000000       0.00351354
He       0.00000000       0.00000000       4.06000000       0.00000000       0.00000000      -0.00351354
2
Properties=species:S:1:pos:R:3:forces:R:3 energy=0.0011642295460221243 pbc="F F F"
He       0.00000000       0.00000000       0.00000000       0.00000000       0.00000000       0.00317123
He       0.00000000       0.00000000       4.11878788       0.00000000       0.00000000      -0.00317123
2
Properties=species:S:1:pos:R:3:forces:R:3 energy=0.001340337139610921 pbc="F F F"
He       0.00000000       0.00000000       0.00000000       0.00000000       0.00000000       0.00282081
He       0.00000000       0.00000000       4.17757576       0.00000000       0.00000000      -0.00282081
2
Properties=species:S:1:pos:R:3:forces:R:3 energy=0.0014957132789121573 pbc="F F F"
He       0.00000000       0.00000000       0.00000000       0.00000000       0.00000000       0.00246024
He       0.00000000       0.00000000       4.23636364       0.00000000       0.00000000      -0.00246024
2
Properties=species:S:1:pos:R:3:forces:R:3 energy=0.0016292728060550285 pbc="F F F"
He       0.00000000       0.00000000       0.00000000       0.00000000       0.00000000       0.00208197
He       0.00000000       0.00000000       4.29515152       0.00000000       0.00000000      -0.00208197
2
Properties=species:S:1:pos:R:3:forces:R:3 energy=0.0017399993126415937 pbc="F F F"
He       0.00000000       0.00000000       0.00000000       0.00000000       0.00000000       0.00168173
He       0.00000000       0.00000000       4.35393939       0.00000000       0.00000000      -0.00168173
2
Properties=species:S:1:pos:R:3:forces:R:3 energy=0.0018266960301758413 pbc="F F F"
He       0.00000000       0.00000000       0.00000000       0.00000000       0.00000000       0.00126572
He       0.00000000       0.00000000       4.41272727       0.00000000       0.00000000      -0.00126572
2
Properties=species:S:1:pos:R:3:forces:R:3 energy=0.0018890133543478852 pbc="F F F"
He       0.00000000       0.00000000       0.00000000       0.00000000       0.00000000       0.00085646
He       0.00000000       0.00000000       4.47151515       0.00000000       0.00000000      -0.00085646
2
Properties=species:S:1:pos:R:3:forces:R:3 energy=0.0019281875020478517 pbc="F F F"
He       0.00000000       0.00000000       0.00000000       0.00000000       0.00000000       0.00048751
He       0.00000000       0.00000000       4.53030303       0.00000000       0.00000000      -0.00048751
2
Properties=species:S:1:pos:R:3:forces:R:3 energy=0.001947838912391579 pbc="F F F"
He       0.00000000       0.00000000       0.00000000       0.00000000       0.00000000       0.00019682
He       0.00000000       0.00000000       4.58909091       0.00000000       0.00000000      -0.00019682
2
Properties=species:S:1:pos:R:3:forces:R:3 energy=0.0019535264440966992 pbc="F F F"
He       0.00000000       0.00000000       0.00000000       0.00000000       0.00000000       0.00001612
He       0.00000000       0.00000000       4.64787879       0.00000000       0.00000000      -0.00001612
2
Properties=species:S:1:pos:R:3:forces:R:3 energy=0.0019522028285735165 pbc="F F F"
He       0.00000000       0.00000000       0.00000000       0.00000000       0.00000000      -0.00003795
He       0.00000000       0.00000000       4.70666667       0.00000000       0.00000000       0.00003795
2
Properties=species:S:1:pos:R:3:forces:R:3 energy=0.0019514879869247056 pbc="F F F"
He       0.00000000       0.00000000       0.00000000       0.00000000       0.00000000       0.00003238
He       0.00000000       0.00000000       4.76545455       0.00000000       0.00000000      -0.00003238
2
Properties=species:S:1:pos:R:3:forces:R:3 energy=0.001958095674105403 pbc="F F F"
He       0.00000000       0.00000000       0.00000000       0.00000000       0.00000000       0.00020769
He       0.00000000       0.00000000       4.82424242       0.00000000       0.00000000      -0.00020769
2
Properties=species:S:1:pos:R:3:forces:R:3 energy=0.0019773028972903915 pbc="F F F"
He       0.00000000       0.00000000       0.00000000       0.00000000       0.00000000       0.00045306
He       0.00000000       0.00000000       4.88303030       0.00000000       0.00000000      -0.00045306
2
Properties=species:S:1:pos:R:3:forces:R:3 energy=0.002011821880716522 pbc="F F F"
He       0.00000000       0.00000000       0.00000000       0.00000000       0.00000000       0.00072060
He       0.00000000       0.00000000       4.94181818       0.00000000       0.00000000      -0.00072060
2
Properties=species:S:1:pos:R:3:forces:R:3 energy=0.0020612078311453915 pbc="F F F"
He       0.00000000       0.00000000       0.00000000       0.00000000       0.00000000       0.00094546
He       0.00000000       0.00000000       5.00060606       0.00000000       0.00000000      -0.00094546
2
Properties=species:S:1:pos:R:3:forces:R:3 energy=0.0021205021122408796 pbc="F F F"
He       0.00000000       0.00000000       0.00000000       0.00000000       0.00000000       0.00104283
He       0.00000000       0.00000000       5.05939394       0.00000000       0.00000000      -0.00104283
2
Properties=species:S:1:pos:R:3:forces:R:3 energy=0.0021793187268673566 pbc="F F F"
He       0.00000000       0.00000000       0.00000000       0.00000000       0.00000000       0.00091197
He       0.00000000       0.00000000       5.11818182       0.00000000       0.00000000      -0.00091197
2
Properties=species:S:1:pos:R:3:forces:R:3 energy=0.0022215684158705296 pbc="F F F"
He       0.00000000       0.00000000       0.00000000       0.00000000       0.00000000       0.00046990
He       0.00000000       0.00000000       5.17696970       0.00000000       0.00000000      -0.00046990
2
Properties=species:S:1:pos:R:3:forces:R:3 energy=0.0022284462782128627 pbc="F F F"
He       0.00000000       0.00000000       0.00000000       0.00000000       0.00000000      -0.00027811
He       0.00000000       0.00000000       5.23575758       0.00000000       0.00000000       0.00027811
2
Properties=species:S:1:pos:R:3:forces:R:3 energy=0.002186038973816586 pbc="F F F"
He       0.00000000       0.00000000       0.00000000       0.00000000       0.00000000      -0.00116383
He       0.00000000       0.00000000       5.29454545       0.00000000       0.00000000       0.00116383
2
Properties=species:S:1:pos:R:3:forces:R:3 energy=0.002095551502509715 pbc="F F F"
He       0.00000000       0.00000000       0.00000000       0.00000000       0.00000000      -0.00184790
He       0.00000000       0.00000000       5.35333333       0.00000000       0.00000000       0.00184790
2
Properties=species:S:1:pos:R:3:forces:R:3 energy=0.001980034450152978 pbc="F F F"
He       0.00000000       0.00000000       0.00000000       0.00000000       0.00000000      -0.00196682
He       0.00000000       0.00000000       5.41212121       0.00000000       0.00000000       0.00196682
2
Properties=species:S:1:pos:R:3:forces:R:3 energy=0.001877664789013138 pbc="F F F"
He       0.00000000       0.00000000       0.00000000       0.00000000       0.00000000      -0.00141930
He       0.00000000       0.00000000       5.47090909       0.00000000       0.00000000       0.00141930
2
Properties=species:S:1:pos:R:3:forces:R:3 energy=0.001820172069556312 pbc="F F F"
He       0.00000000       0.00000000       0.00000000       0.00000000       0.00000000      -0.00052265
He       0.00000000       0.00000000       5.52969697       0.00000000       0.00000000       0.00052265
2
Properties=species:S:1:pos:R:3:forces:R:3 energy=0.0018106848032076461 pbc="F F F"
He       0.00000000       0.00000000       0.00000000       0.00000000       0.00000000       0.00009063
He       0.00000000       0.00000000       5.58848485       0.00000000       0.00000000      -0.00009063
2
Properties=species:S:1:pos:R:3:forces:R:3 energy=0.0018166016374236208 pbc="F F F"
He       0.00000000       0.00000000       0.00000000       0.00000000       0.00000000       0.00004313
He       0.00000000       0.00000000       5.64727273       0.00000000       0.00000000      -0.00004313
2
Properties=species:S:1:pos:R:3:forces:R:3 energy=0.0018196797928036641 pbc="F F F"
He       0.00000000       0.00000000       0.00000000       0.00000000       0.00000000       0.00015735
He       0.00000000       0.00000000       5.70606061       0.00000000       0.00000000      -0.00015735
2
Properties=species:S:1:pos:R:3:forces:R:3 energy=0.001841133434878855 pbc="F F F"
He       0.00000000       0.00000000       0.00000000       0.00000000       0.00000000       0.00054070
He       0.00000000       0.00000000       5.76484848       0.00000000       0.00000000      -0.00054070
2
Properties=species:S:1:pos:R:3:forces:R:3 energy=0.0018747163103698405 pbc="F F F"
He       0.00000000       0.00000000       0.00000000       0.00000000       0.00000000       0.00053577
He       0.00000000       0.00000000       5.82363636       0.00000000       0.00000000      -0.00053577
2
Properties=species:S:1:pos:R:3:forces:R:3 energy=0.001899871070103376 pbc="F F F"
He       0.00000000       0.00000000       0.00000000       0.00000000       0.00000000       0.00031265
He       0.00000000       0.00000000       5.88242424       0.00000000       0.00000000      -0.00031265
2
Properties=species:S:1:pos:R:3:forces:R:3 energy=0.0019117647496346055 pbc="F F F"
He       0.00000000       0.00000000       0.00000000       0.00000000       0.00000000       0.00010346
He       0.00000000       0.00000000       5.94121212       0.00000000       0.00000000      -0.00010346
2
Properties=species:S:1:pos:R:3:forces:R:3 energy=0.0019146129817079068 pbc="F F F"
He       0.00000000       0.00000000       0.00000000       0.00000000       0.00000000       0.00002058
He       0.00000000       0.00000000       6.00000000       0.00000000       0.00000000      -0.00002058
