2
Properties=species:S:1:pos:R:3:forces:R:3 energy=82000.35825957572 pbc="F F F"
Hf       0.00000000       0.00000000       0.00000000       0.00000000       0.00000000 -1876184.12500000
Hf       0.00000000       0.00000000       0.10000000       0.00000000       0.00000000 1876184.12500000
2
Properties=species:S:1:pos:R:3:forces:R:3 energy=28032.014509575718 pbc="F F F"
Hf       0.00000000       0.00000000       0.00000000       0.00000000       0.00000000 -388261.81250000
Hf       0.00000000       0.00000000       0.15959596       0.00000000       0.00000000  388261.81250000
2
Properties=species:S:1:pos:R:3:forces:R:3 energy=14811.510603325718 pbc="F F F"
Hf       0.00000000       0.00000000       0.00000000       0.00000000       0.00000000 -118260.45312500
Hf       0.00000000       0.00000000       0.21919192       0.00000000       0.00000000  118260.45312500
2
Properties=species:S:1:pos:R:3:forces:R:3 energy=10318.297712700718 pbc="F F F"
Hf       0.00000000       0.00000000       0.00000000       0.00000000       0.00000000  -46619.62500000
Hf       0.00000000       0.00000000       0.27878788       0.00000000       0.00000000   46619.62500000
2
Properties=species:S:1:pos:R:3:forces:R:3 energy=8317.341658016385 pbc="F F F"
Hf       0.00000000       0.00000000       0.00000000       0.00000000       0.00000000  -24830.97265625
Hf       0.00000000       0.00000000       0.33838384       0.00000000       0.00000000   24830.97265625
2
Properties=species:S:1:pos:R:3:forces:R:3 energy=7043.791853328886 pbc="F F F"
Hf       0.00000000       0.00000000       0.00000000       0.00000000       0.00000000  -19481.48632812
Hf       0.00000000       0.00000000       0.39797980       0.00000000       0.00000000   19481.48632812
2
Properties=species:S:1:pos:R:3:forces:R:3 energy=5880.842146297636 pbc="F F F"
Hf       0.00000000       0.00000000       0.00000000       0.00000000       0.00000000  -20043.39843750
Hf       0.00000000       0.00000000       0.45757576       0.00000000       0.00000000   20043.39843750
2
Properties=species:S:1:pos:R:3:forces:R:3 energy=4635.685896307139 pbc="F F F"
Hf       0.00000000       0.00000000       0.00000000       0.00000000       0.00000000  -21615.12109375
Hf       0.00000000       0.00000000       0.51717172       0.00000000       0.00000000   21615.12109375
2
Properties=species:S:1:pos:R:3:forces:R:3 energy=3345.1338943635174 pbc="F F F"
Hf       0.00000000       0.00000000       0.00000000       0.00000000       0.00000000  -21201.40234375
Hf       0.00000000       0.00000000       0.57676768       0.00000000       0.00000000   21201.40234375
2
Properties=species:S:1:pos:R:3:forces:R:3 energy=2082.511824073192 pbc="F F F"
Hf       0.00000000       0.00000000       0.00000000       0.00000000       0.00000000  -21512.78710938
Hf       0.00000000       0.00000000       0.63636364       0.00000000       0.00000000   21512.78710938
2
Properties=species:S:1:pos:R:3:forces:R:3 energy=1229.1520828971006 pbc="F F F"
Hf       0.00000000       0.00000000       0.00000000       0.00000000       0.00000000  -11104.31347656
Hf       0.00000000       0.00000000       0.69595960       0.00000000       0.00000000   11104.31347656
2
Properties=species:S:1:pos:R:3:forces:R:3 energy=768.8123002266065 pbc="F F F"
Hf       0.00000000       0.00000000       0.00000000       0.00000000       0.00000000   -6003.57861328
Hf       0.00000000       0.00000000       0.75555556       0.00000000       0.00000000    6003.57861328
2
Properties=species:S:1:pos:R:3:forces:R:3 energy=462.17341480458737 pbc="F F F"
Hf       0.00000000       0.00000000       0.00000000       0.00000000       0.00000000   -4312.14013672
Hf       0.00000000       0.00000000       0.81515152       0.00000000       0.00000000    4312.14013672
2
Properties=species:S:1:pos:R:3:forces:R:3 energy=275.43018981146923 pbc="F F F"
Hf       0.00000000       0.00000000       0.00000000       0.00000000       0.00000000   -2352.76025391
Hf       0.00000000       0.00000000       0.87474747       0.00000000       0.00000000    2352.76025391
2
Properties=species:S:1:pos:R:3:forces:R:3 energy=181.11683546816937 pbc="F F F"
Hf       0.00000000       0.00000000       0.00000000       0.00000000       0.00000000    -971.96276855
Hf       0.00000000       0.00000000       0.93434343       0.00000000       0.00000000     971.96276855
2
Properties=species:S:1:pos:R:3:forces:R:3 energy=143.39941319189407 pbc="F F F"
Hf       0.00000000       0.00000000       0.00000000       0.00000000       0.00000000    -430.13510132
Hf       0.00000000       0.00000000       0.99393939       0.00000000       0.00000000     430.13510132
2
Properties=species:S:1:pos:R:3:forces:R:3 energy=117.67037141743975 pbc="F F F"
Hf       0.00000000       0.00000000       0.00000000       0.00000000       0.00000000    -404.60900879
Hf       0.00000000       0.00000000       1.05353535       0.00000000       0.00000000     404.60900879
2
Properties=species:S:1:pos:R:3:forces:R:3 energy=95.78401925218027 pbc="F F F"
Hf       0.00000000       0.00000000       0.00000000       0.00000000       0.00000000    -335.74084473
Hf       0.00000000       0.00000000       1.11313131       0.00000000       0.00000000     335.74084473
2
Properties=species:S:1:pos:R:3:forces:R:3 energy=76.98308591480554 pbc="F F F"
Hf       0.00000000       0.00000000       0.00000000       0.00000000       0.00000000    -298.35238647
Hf       0.00000000       0.00000000       1.17272727       0.00000000       0.00000000     298.35238647
2
Properties=species:S:1:pos:R:3:forces:R:3 energy=60.224007578381254 pbc="F F F"
Hf       0.00000000       0.00000000       0.00000000       0.00000000       0.00000000    -262.26382446
Hf       0.00000000       0.00000000       1.23232323       0.00000000       0.00000000     262.26382446
2
Properties=species:S:1:pos:R:3:forces:R:3 energy=45.9130991339426 pbc="F F F"
Hf       0.00000000       0.00000000       0.00000000       0.00000000       0.00000000    -217.50004578
Hf       0.00000000       0.00000000       1.29191919       0.00000000       0.00000000     217.50004578
2
Properties=species:S:1:pos:R:3:forces:R:3 energy=34.199286397585624 pbc="F F F"
Hf       0.00000000       0.00000000       0.00000000       0.00000000       0.00000000    -177.25328064
Hf       0.00000000       0.00000000       1.35151515       0.00000000       0.00000000     177.25328064
2
Properties=species:S:1:pos:R:3:forces:R:3 energy=24.615654298883722 pbc="F F F"
Hf       0.00000000       0.00000000       0.00000000       0.00000000       0.00000000    -145.27297974
Hf       0.00000000       0.00000000       1.41111111       0.00000000       0.00000000     145.27297974
2
Properties=species:S:1:pos:R:3:forces:R:3 energy=16.81627850474499 pbc="F F F"
Hf       0.00000000       0.00000000       0.00000000       0.00000000       0.00000000    -116.96475983
Hf       0.00000000       0.00000000       1.47070707       0.00000000       0.00000000     116.96475983
2
Properties=species:S:1:pos:R:3:forces:R:3 energy=10.598367864536613 pbc="F F F"
Hf       0.00000000       0.00000000       0.00000000       0.00000000       0.00000000     -92.47294617
Hf       0.00000000       0.00000000       1.53030303       0.00000000       0.00000000      92.47294617
2
Properties=species:S:1:pos:R:3:forces:R:3 energy=5.7021334579299285 pbc="F F F"
Hf       0.00000000       0.00000000       0.00000000       0.00000000       0.00000000     -72.54341888
Hf       0.00000000       0.00000000       1.58989899       0.00000000       0.00000000      72.54341888
2
Properties=species:S:1:pos:R:3:forces:R:3 energy=1.8786644728611144 pbc="F F F"
Hf       0.00000000       0.00000000       0.00000000       0.00000000       0.00000000     -56.32721329
Hf       0.00000000       0.00000000       1.64949495       0.00000000       0.00000000      56.32721329
2
Properties=species:S:1:pos:R:3:forces:R:3 energy=-1.0765763904655847 pbc="F F F"
Hf       0.00000000       0.00000000       0.00000000       0.00000000       0.00000000     -43.38287735
Hf       0.00000000       0.00000000       1.70909091       0.00000000       0.00000000      43.38287735
2
Properties=species:S:1:pos:R:3:forces:R:3 energy=-3.3517329992620133 pbc="F F F"
Hf       0.00000000       0.00000000       0.00000000       0.00000000       0.00000000     -33.41729736
Hf       0.00000000       0.00000000       1.76868687       0.00000000       0.00000000      33.41729736
2
Properties=species:S:1:pos:R:3:forces:R:3 energy=-5.105408154429862 pbc="F F F"
Hf       0.00000000       0.00000000       0.00000000       0.00000000       0.00000000     -25.75821877
Hf       0.00000000       0.00000000       1.82828283       0.00000000       0.00000000      25.75821877
2
Properties=species:S:1:pos:R:3:forces:R:3 energy=-6.454730880060808 pbc="F F F"
Hf       0.00000000       0.00000000       0.00000000       0.00000000       0.00000000     -19.76000023
Hf       0.00000000       0.00000000       1.88787879       0.00000000       0.00000000      19.76000023
2
Properties=species:S:1:pos:R:3:forces:R:3 energy=-7.4853851168280245 pbc="F F F"
Hf       0.00000000       0.00000000       0.00000000       0.00000000       0.00000000     -15.01293850
Hf       0.00000000       0.00000000       1.94747475       0.00000000       0.00000000      15.01293850
2
Properties=species:S:1:pos:R:3:forces:R:3 energy=-8.264004306294558 pbc="F F F"
Hf       0.00000000       0.00000000       0.00000000       0.00000000       0.00000000     -11.26675892
Hf       0.00000000       0.00000000       2.00707071       0.00000000       0.00000000      11.26675892
2
Properties=species:S:1:pos:R:3:forces:R:3 energy=-8.844196430315925 pbc="F F F"
Hf       0.00000000       0.00000000       0.00000000       0.00000000       0.00000000      -8.32106400
Hf       0.00000000       0.00000000       2.06666667       0.00000000       0.00000000       8.32106400
2
Properties=species:S:1:pos:R:3:forces:R:3 energy=-9.267980678712101 pbc="F F F"
Hf       0.00000000       0.00000000       0.00000000       0.00000000       0.00000000      -5.99085617
Hf       0.00000000       0.00000000       2.12626263       0.00000000       0.00000000       5.99085617
2
Properties=species:S:1:pos:R:3:forces:R:3 energy=-9.568062523216676 pbc="F F F"
Hf       0.00000000       0.00000000       0.00000000       0.00000000       0.00000000      -4.15679073
Hf       0.00000000       0.00000000       2.18585859       0.00000000       0.00000000       4.15679073
2
Properties=species:S:1:pos:R:3:forces:R:3 energy=-9.772158895094826 pbc="F F F"
Hf       0.00000000       0.00000000       0.00000000       0.00000000       0.00000000      -2.76048613
Hf       0.00000000       0.00000000       2.24545455       0.00000000       0.00000000       2.76048613
2
Properties=species:S:1:pos:R:3:forces:R:3 energy=-9.904225703372697 pbc="F F F"
Hf       0.00000000       0.00000000       0.00000000       0.00000000       0.00000000      -1.72166550
Hf       0.00000000       0.00000000       2.30505051       0.00000000       0.00000000       1.72166550
2
Properties=species:S:1:pos:R:3:forces:R:3 energy=-9.982112388401804 pbc="F F F"
Hf       0.00000000       0.00000000       0.00000000       0.00000000       0.00000000      -0.92272449
Hf       0.00000000       0.00000000       2.36464646       0.00000000       0.00000000       0.92272449
2
Properties=species:S:1:pos:R:3:forces:R:3 energy=-10.017048788055984 pbc="F F F"
Hf       0.00000000       0.00000000       0.00000000       0.00000000       0.00000000      -0.26882839
Hf       0.00000000       0.00000000       2.42424242       0.00000000       0.00000000       0.26882839
2
Properties=species:S:1:pos:R:3:forces:R:3 energy=-10.01617797301088 pbc="F F F"
Hf       0.00000000       0.00000000       0.00000000       0.00000000       0.00000000       0.28211662
Hf       0.00000000       0.00000000       2.48383838       0.00000000       0.00000000      -0.28211662
2
Properties=species:S:1:pos:R:3:forces:R:3 energy=-9.985298560919489 pbc="F F F"
Hf       0.00000000       0.00000000       0.00000000       0.00000000       0.00000000       0.73843020
Hf       0.00000000       0.00000000       2.54343434       0.00000000       0.00000000      -0.73843020
2
Properties=species:S:1:pos:R:3:forces:R:3 energy=-9.930015129414082 pbc="F F F"
Hf       0.00000000       0.00000000       0.00000000       0.00000000       0.00000000       1.10176396
Hf       0.00000000       0.00000000       2.60303030       0.00000000       0.00000000      -1.10176396
2
Properties=species:S:1:pos:R:3:forces:R:3 energy=-9.855685269518837 pbc="F F F"
Hf       0.00000000       0.00000000       0.00000000       0.00000000       0.00000000       1.37925518
Hf       0.00000000       0.00000000       2.66262626       0.00000000       0.00000000      -1.37925518
2
Properties=species:S:1:pos:R:3:forces:R:3 energy=-9.767086651623417 pbc="F F F"
Hf       0.00000000       0.00000000       0.00000000       0.00000000       0.00000000       1.58283770
Hf       0.00000000       0.00000000       2.72222222       0.00000000       0.00000000      -1.58283770
2
Properties=species:S:1:pos:R:3:forces:R:3 energy=-9.668244242057563 pbc="F F F"
Hf       0.00000000       0.00000000       0.00000000       0.00000000       0.00000000       1.72498250
Hf       0.00000000       0.00000000       2.78181818       0.00000000       0.00000000      -1.72498250
2
Properties=species:S:1:pos:R:3:forces:R:3 energy=-9.562501466893712 pbc="F F F"
Hf       0.00000000       0.00000000       0.00000000       0.00000000       0.00000000       1.81580722
Hf       0.00000000       0.00000000       2.84141414       0.00000000       0.00000000      -1.81580722
2
Properties=species:S:1:pos:R:3:forces:R:3 energy=-9.452686635315434 pbc="F F F"
Hf       0.00000000       0.00000000       0.00000000       0.00000000       0.00000000       1.86276460
Hf       0.00000000       0.00000000       2.90101010       0.00000000       0.00000000      -1.86276460
2
Properties=species:S:1:pos:R:3:forces:R:3 energy=-9.341221486627859 pbc="F F F"
Hf       0.00000000       0.00000000       0.00000000       0.00000000       0.00000000       1.87216020
Hf       0.00000000       0.00000000       2.96060606       0.00000000       0.00000000      -1.87216020
2
Properties=species:S:1:pos:R:3:forces:R:3 energy=-9.230144981270579 pbc="F F F"
Hf       0.00000000       0.00000000       0.00000000       0.00000000       0.00000000       1.85108173
Hf       0.00000000       0.00000000       3.02020202       0.00000000       0.00000000      -1.85108173
2
Properties=species:S:1:pos:R:3:forces:R:3 energy=-9.121017878283418 pbc="F F F"
Hf       0.00000000       0.00000000       0.00000000       0.00000000       0.00000000       1.80836844
Hf       0.00000000       0.00000000       3.07979798       0.00000000       0.00000000      -1.80836844
2
Properties=species:S:1:pos:R:3:forces:R:3 energy=-9.0148254045228 pbc="F F F"
Hf       0.00000000       0.00000000       0.00000000       0.00000000       0.00000000       1.75445855
Hf       0.00000000       0.00000000       3.13939394       0.00000000       0.00000000      -1.75445855
2
Properties=species:S:1:pos:R:3:forces:R:3 energy=-8.911897733011392 pbc="F F F"
Hf       0.00000000       0.00000000       0.00000000       0.00000000       0.00000000       1.70066273
Hf       0.00000000       0.00000000       3.19898990       0.00000000       0.00000000      -1.70066273
2
Properties=species:S:1:pos:R:3:forces:R:3 energy=-8.811911736197612 pbc="F F F"
Hf       0.00000000       0.00000000       0.00000000       0.00000000       0.00000000       1.65715253
Hf       0.00000000       0.00000000       3.25858586       0.00000000       0.00000000      -1.65715253
2
Properties=species:S:1:pos:R:3:forces:R:3 energy=-8.714081302477359 pbc="F F F"
Hf       0.00000000       0.00000000       0.00000000       0.00000000       0.00000000       1.62829244
Hf       0.00000000       0.00000000       3.31818182       0.00000000       0.00000000      -1.62829244
2
Properties=species:S:1:pos:R:3:forces:R:3 energy=-8.617635869268753 pbc="F F F"
Hf       0.00000000       0.00000000       0.00000000       0.00000000       0.00000000       1.60919929
Hf       0.00000000       0.00000000       3.37777778       0.00000000       0.00000000      -1.60919929
2
Properties=species:S:1:pos:R:3:forces:R:3 energy=-8.522273483570642 pbc="F F F"
Hf       0.00000000       0.00000000       0.00000000       0.00000000       0.00000000       1.59040475
Hf       0.00000000       0.00000000       3.43737374       0.00000000       0.00000000      -1.59040475
2
Properties=species:S:1:pos:R:3:forces:R:3 energy=-8.428201096006957 pbc="F F F"
Hf       0.00000000       0.00000000       0.00000000       0.00000000       0.00000000       1.56523395
Hf       0.00000000       0.00000000       3.49696970       0.00000000       0.00000000      -1.56523395
2
Properties=species:S:1:pos:R:3:forces:R:3 energy=-8.335889751720135 pbc="F F F"
Hf       0.00000000       0.00000000       0.00000000       0.00000000       0.00000000       1.53102672
Hf       0.00000000       0.00000000       3.55656566       0.00000000       0.00000000      -1.53102672
2
Properties=species:S:1:pos:R:3:forces:R:3 energy=-8.245913483001496 pbc="F F F"
Hf       0.00000000       0.00000000       0.00000000       0.00000000       0.00000000       1.48683369
Hf       0.00000000       0.00000000       3.61616162       0.00000000       0.00000000      -1.48683369
2
Properties=species:S:1:pos:R:3:forces:R:3 energy=-8.158879070812402 pbc="F F F"
Hf       0.00000000       0.00000000       0.00000000       0.00000000       0.00000000       1.43228424
Hf       0.00000000       0.00000000       3.67575758       0.00000000       0.00000000      -1.43228424
2
Properties=species:S:1:pos:R:3:forces:R:3 energy=-8.075396888991609 pbc="F F F"
Hf       0.00000000       0.00000000       0.00000000       0.00000000       0.00000000       1.36772251
Hf       0.00000000       0.00000000       3.73535354       0.00000000       0.00000000      -1.36772251
2
Properties=species:S:1:pos:R:3:forces:R:3 energy=-7.99602885554187 pbc="F F F"
Hf       0.00000000       0.00000000       0.00000000       0.00000000       0.00000000       1.29454041
Hf       0.00000000       0.00000000       3.79494949       0.00000000       0.00000000      -1.29454041
2
Properties=species:S:1:pos:R:3:forces:R:3 energy=-7.921222537845491 pbc="F F F"
Hf       0.00000000       0.00000000       0.00000000       0.00000000       0.00000000       1.21511185
Hf       0.00000000       0.00000000       3.85454545       0.00000000       0.00000000      -1.21511185
2
Properties=species:S:1:pos:R:3:forces:R:3 energy=-7.851263605709744 pbc="F F F"
Hf       0.00000000       0.00000000       0.00000000       0.00000000       0.00000000       1.13240469
Hf       0.00000000       0.00000000       3.91414141       0.00000000       0.00000000      -1.13240469
2
Properties=species:S:1:pos:R:3:forces:R:3 energy=-7.7862534260363825 pbc="F F F"
Hf       0.00000000       0.00000000       0.00000000       0.00000000       0.00000000       1.04944932
Hf       0.00000000       0.00000000       3.97373737       0.00000000       0.00000000      -1.04944932
2
Properties=species:S:1:pos:R:3:forces:R:3 energy=-7.726129131004119 pbc="F F F"
Hf       0.00000000       0.00000000       0.00000000       0.00000000       0.00000000       0.96889055
Hf       0.00000000       0.00000000       4.03333333       0.00000000       0.00000000      -0.96889055
2
Properties=species:S:1:pos:R:3:forces:R:3 energy=-7.670683162056466 pbc="F F F"
Hf       0.00000000       0.00000000       0.00000000       0.00000000       0.00000000       0.89267200
Hf       0.00000000       0.00000000       4.09292929       0.00000000       0.00000000      -0.89267200
2
Properties=species:S:1:pos:R:3:forces:R:3 energy=-7.619618670047281 pbc="F F F"
Hf       0.00000000       0.00000000       0.00000000       0.00000000       0.00000000       0.82199323
Hf       0.00000000       0.00000000       4.15252525       0.00000000       0.00000000      -0.82199323
2
Properties=species:S:1:pos:R:3:forces:R:3 energy=-7.572588248420357 pbc="F F F"
Hf       0.00000000       0.00000000       0.00000000       0.00000000       0.00000000       0.75735337
Hf       0.00000000       0.00000000       4.21212121       0.00000000       0.00000000      -0.75735337
2
Properties=species:S:1:pos:R:3:forces:R:3 energy=-7.529228035737791 pbc="F F F"
Hf       0.00000000       0.00000000       0.00000000       0.00000000       0.00000000       0.69872451
Hf       0.00000000       0.00000000       4.27171717       0.00000000       0.00000000      -0.69872451
2
Properties=species:S:1:pos:R:3:forces:R:3 energy=-7.489193923625786 pbc="F F F"
Hf       0.00000000       0.00000000       0.00000000       0.00000000       0.00000000       0.64571756
Hf       0.00000000       0.00000000       4.33131313       0.00000000       0.00000000      -0.64571756
2
Properties=species:S:1:pos:R:3:forces:R:3 energy=-7.45216454451048 pbc="F F F"
Hf       0.00000000       0.00000000       0.00000000       0.00000000       0.00000000       0.59773844
Hf       0.00000000       0.00000000       4.39090909       0.00000000       0.00000000      -0.59773844
2
Properties=species:S:1:pos:R:3:forces:R:3 energy=-7.41786122908651 pbc="F F F"
Hf       0.00000000       0.00000000       0.00000000       0.00000000       0.00000000       0.55412465
Hf       0.00000000       0.00000000       4.45050505       0.00000000       0.00000000      -0.55412465
2
Properties=species:S:1:pos:R:3:forces:R:3 energy=-7.386043816152894 pbc="F F F"
Hf       0.00000000       0.00000000       0.00000000       0.00000000       0.00000000       0.51422089
Hf       0.00000000       0.00000000       4.51010101       0.00000000       0.00000000      -0.51422089
2
Properties=species:S:1:pos:R:3:forces:R:3 energy=-7.356508738928752 pbc="F F F"
Hf       0.00000000       0.00000000       0.00000000       0.00000000       0.00000000       0.47739878
Hf       0.00000000       0.00000000       4.56969697       0.00000000       0.00000000      -0.47739878
2
Properties=species:S:1:pos:R:3:forces:R:3 energy=-7.329092286885686 pbc="F F F"
Hf       0.00000000       0.00000000       0.00000000       0.00000000       0.00000000       0.44304228
Hf       0.00000000       0.00000000       4.62929293       0.00000000       0.00000000      -0.44304228
2
Properties=species:S:1:pos:R:3:forces:R:3 energy=-7.30366568999254 pbc="F F F"
Hf       0.00000000       0.00000000       0.00000000       0.00000000       0.00000000       0.41054004
Hf       0.00000000       0.00000000       4.68888889       0.00000000       0.00000000      -0.41054004
2
Properties=species:S:1:pos:R:3:forces:R:3 energy=-7.280134732241099 pbc="F F F"
Hf       0.00000000       0.00000000       0.00000000       0.00000000       0.00000000       0.37927818
Hf       0.00000000       0.00000000       4.74848485       0.00000000       0.00000000      -0.37927818
2
Properties=species:S:1:pos:R:3:forces:R:3 energy=-7.258445231273669 pbc="F F F"
Hf       0.00000000       0.00000000       0.00000000       0.00000000       0.00000000       0.34869435
Hf       0.00000000       0.00000000       4.80808081       0.00000000       0.00000000      -0.34869435
2
Properties=species:S:1:pos:R:3:forces:R:3 energy=-7.238567766922724 pbc="F F F"
Hf       0.00000000       0.00000000       0.00000000       0.00000000       0.00000000       0.31837800
Hf       0.00000000       0.00000000       4.86767677       0.00000000       0.00000000      -0.31837800
2
Properties=species:S:1:pos:R:3:forces:R:3 energy=-7.220493787318088 pbc="F F F"
Hf       0.00000000       0.00000000       0.00000000       0.00000000       0.00000000       0.28820363
Hf       0.00000000       0.00000000       4.92727273       0.00000000       0.00000000      -0.28820363
2
Properties=species:S:1:pos:R:3:forces:R:3 energy=-7.204207942828294 pbc="F F F"
Hf       0.00000000       0.00000000       0.00000000       0.00000000       0.00000000       0.25845671
Hf       0.00000000       0.00000000       4.98686869       0.00000000       0.00000000      -0.25845671
2
Properties=species:S:1:pos:R:3:forces:R:3 energy=-7.18966661254935 pbc="F F F"
Hf       0.00000000       0.00000000       0.00000000       0.00000000       0.00000000       0.22987206
Hf       0.00000000       0.00000000       5.04646465       0.00000000       0.00000000      -0.22987206
2
Properties=species:S:1:pos:R:3:forces:R:3 energy=-7.176765918201278 pbc="F F F"
Hf       0.00000000       0.00000000       0.00000000       0.00000000       0.00000000       0.20351575
Hf       0.00000000       0.00000000       5.10606061       0.00000000       0.00000000      -0.20351575
2
Properties=species:S:1:pos:R:3:forces:R:3 energy=-7.16534068809042 pbc="F F F"
Hf       0.00000000       0.00000000       0.00000000       0.00000000       0.00000000       0.18047947
Hf       0.00000000       0.00000000       5.16565657       0.00000000       0.00000000      -0.18047947
2
Properties=species:S:1:pos:R:3:forces:R:3 energy=-7.155174938023451 pbc="F F F"
Hf       0.00000000       0.00000000       0.00000000       0.00000000       0.00000000       0.16134945
Hf       0.00000000       0.00000000       5.22525253       0.00000000       0.00000000      -0.16134945
2
Properties=species:S:1:pos:R:3:forces:R:3 energy=-7.146042275752943 pbc="F F F"
Hf       0.00000000       0.00000000       0.00000000       0.00000000       0.00000000       0.14558616
Hf       0.00000000       0.00000000       5.28484848       0.00000000       0.00000000      -0.14558616
2
Properties=species:S:1:pos:R:3:forces:R:3 energy=-7.1377893949973785 pbc="F F F"
Hf       0.00000000       0.00000000       0.00000000       0.00000000       0.00000000       0.13148771
Hf       0.00000000       0.00000000       5.34444444       0.00000000       0.00000000      -0.13148771
2
Properties=species:S:1:pos:R:3:forces:R:3 energy=-7.130352593679298 pbc="F F F"
Hf       0.00000000       0.00000000       0.00000000       0.00000000       0.00000000       0.11843179
Hf       0.00000000       0.00000000       5.40404040       0.00000000       0.00000000      -0.11843179
2
Properties=species:S:1:pos:R:3:forces:R:3 energy=-7.123582297851074 pbc="F F F"
Hf       0.00000000       0.00000000       0.00000000       0.00000000       0.00000000       0.10986262
Hf       0.00000000       0.00000000       5.46363636       0.00000000       0.00000000      -0.10986262
2
Properties=species:S:1:pos:R:3:forces:R:3 energy=-7.117148559238572 pbc="F F F"
Hf       0.00000000       0.00000000       0.00000000       0.00000000       0.00000000       0.10637294
Hf       0.00000000       0.00000000       5.52323232       0.00000000       0.00000000      -0.10637294
2
Properties=species:S:1:pos:R:3:forces:R:3 energy=-7.110984040128942 pbc="F F F"
Hf       0.00000000       0.00000000       0.00000000       0.00000000       0.00000000       0.09928187
Hf       0.00000000       0.00000000       5.58282828       0.00000000       0.00000000      -0.09928187
2
Properties=species:S:1:pos:R:3:forces:R:3 energy=-7.105424998778337 pbc="F F F"
Hf       0.00000000       0.00000000       0.00000000       0.00000000       0.00000000       0.08709808
Hf       0.00000000       0.00000000       5.64242424       0.00000000       0.00000000      -0.08709808
2
Properties=species:S:1:pos:R:3:forces:R:3 energy=-7.100495152860204 pbc="F F F"
Hf       0.00000000       0.00000000       0.00000000       0.00000000       0.00000000       0.08026798
Hf       0.00000000       0.00000000       5.70202020       0.00000000       0.00000000      -0.08026798
2
Properties=species:S:1:pos:R:3:forces:R:3 energy=-7.09557562578843 pbc="F F F"
Hf       0.00000000       0.00000000       0.00000000       0.00000000       0.00000000       0.08662261
Hf       0.00000000       0.00000000       5.76161616       0.00000000       0.00000000      -0.08662261
2
Properties=species:S:1:pos:R:3:forces:R:3 energy=-7.090267968120716 pbc="F F F"
Hf       0.00000000       0.00000000       0.00000000       0.00000000       0.00000000       0.08790270
Hf       0.00000000       0.00000000       5.82121212       0.00000000       0.00000000      -0.08790270
2
Properties=species:S:1:pos:R:3:forces:R:3 energy=-7.085636845878002 pbc="F F F"
Hf       0.00000000       0.00000000       0.00000000       0.00000000       0.00000000       0.06426422
Hf       0.00000000       0.00000000       5.88080808       0.00000000       0.00000000      -0.06426422
2
Properties=species:S:1:pos:R:3:forces:R:3 energy=-7.082752740657811 pbc="F F F"
Hf       0.00000000       0.00000000       0.00000000       0.00000000       0.00000000       0.03307370
Hf       0.00000000       0.00000000       5.94040404       0.00000000       0.00000000      -0.03307370
2
Properties=species:S:1:pos:R:3:forces:R:3 energy=-7.081321576662359 pbc="F F F"
Hf       0.00000000       0.00000000       0.00000000       0.00000000       0.00000000       0.01939954
Hf       0.00000000       0.00000000       6.00000000       0.00000000       0.00000000      -0.01939954
