2
Properties=species:S:1:pos:R:3:forces:R:3 energy=21643.975447110563 pbc="F F F"
Hf       0.00000000       0.00000000       0.00000000       0.00000000       0.00000000 -250037.56250000
Hf       0.00000000       0.00000000       0.18000000       0.00000000       0.00000000  250037.56250000
2
Properties=species:S:1:pos:R:3:forces:R:3 energy=12845.196150235564 pbc="F F F"
Hf       0.00000000       0.00000000       0.00000000       0.00000000       0.00000000  -84725.50000000
Hf       0.00000000       0.00000000       0.23878788       0.00000000       0.00000000   84725.50000000
2
Properties=species:S:1:pos:R:3:forces:R:3 energy=9540.457868985564 pbc="F F F"
Hf       0.00000000       0.00000000       0.00000000       0.00000000       0.00000000  -36790.98046875
Hf       0.00000000       0.00000000       0.29757576       0.00000000       0.00000000   36790.98046875
2
Properties=species:S:1:pos:R:3:forces:R:3 energy=7896.661970551231 pbc="F F F"
Hf       0.00000000       0.00000000       0.00000000       0.00000000       0.00000000  -22160.29492188
Hf       0.00000000       0.00000000       0.35636364       0.00000000       0.00000000   22160.29492188
2
Properties=species:S:1:pos:R:3:forces:R:3 energy=6711.301130710649 pbc="F F F"
Hf       0.00000000       0.00000000       0.00000000       0.00000000       0.00000000  -19303.69140625
Hf       0.00000000       0.00000000       0.41515152       0.00000000       0.00000000   19303.69140625
2
Properties=species:S:1:pos:R:3:forces:R:3 energy=5548.961286960649 pbc="F F F"
Hf       0.00000000       0.00000000       0.00000000       0.00000000       0.00000000  -20528.48046875
Hf       0.00000000       0.00000000       0.47393939       0.00000000       0.00000000   20528.48046875
2
Properties=species:S:1:pos:R:3:forces:R:3 energy=4297.958845563903 pbc="F F F"
Hf       0.00000000       0.00000000       0.00000000       0.00000000       0.00000000  -21783.92187500
Hf       0.00000000       0.00000000       0.53272727       0.00000000       0.00000000   21783.92187500
2
Properties=species:S:1:pos:R:3:forces:R:3 energy=3036.5816483109493 pbc="F F F"
Hf       0.00000000       0.00000000       0.00000000       0.00000000       0.00000000  -20608.95703125
Hf       0.00000000       0.00000000       0.59151515       0.00000000       0.00000000   20608.95703125
2
Properties=species:S:1:pos:R:3:forces:R:3 energy=1818.0983719659364 pbc="F F F"
Hf       0.00000000       0.00000000       0.00000000       0.00000000       0.00000000  -14399.33398438
Hf       0.00000000       0.00000000       0.65030303       0.00000000       0.00000000   14399.33398438
2
Properties=species:S:1:pos:R:3:forces:R:3 energy=1091.4904618477003 pbc="F F F"
Hf       0.00000000       0.00000000       0.00000000       0.00000000       0.00000000  -10011.92187500
Hf       0.00000000       0.00000000       0.70909091       0.00000000       0.00000000   10011.92187500
2
Properties=species:S:1:pos:R:3:forces:R:3 energy=698.1904130734282 pbc="F F F"
Hf       0.00000000       0.00000000       0.00000000       0.00000000       0.00000000   -5398.88427734
Hf       0.00000000       0.00000000       0.76787879       0.00000000       0.00000000    5398.88427734
2
Properties=species:S:1:pos:R:3:forces:R:3 energy=415.61991754081936 pbc="F F F"
Hf       0.00000000       0.00000000       0.00000000       0.00000000       0.00000000   -3783.79663086
Hf       0.00000000       0.00000000       0.82666667       0.00000000       0.00000000    3783.79663086
2
Properties=species:S:1:pos:R:3:forces:R:3 energy=251.81947209822033 pbc="F F F"
Hf       0.00000000       0.00000000       0.00000000       0.00000000       0.00000000   -2043.34008789
Hf       0.00000000       0.00000000       0.88545455       0.00000000       0.00000000    2043.34008789
2
Properties=species:S:1:pos:R:3:forces:R:3 energy=172.2271565796155 pbc="F F F"
Hf       0.00000000       0.00000000       0.00000000       0.00000000       0.00000000    -827.12188721
Hf       0.00000000       0.00000000       0.94424242       0.00000000       0.00000000     827.12188721
2
Properties=species:S:1:pos:R:3:forces:R:3 energy=139.50710980112493 pbc="F F F"
Hf       0.00000000       0.00000000       0.00000000       0.00000000       0.00000000    -430.22802734
Hf       0.00000000       0.00000000       1.00303030       0.00000000       0.00000000     430.22802734
2
Properties=species:S:1:pos:R:3:forces:R:3 energy=114.36774393632658 pbc="F F F"
Hf       0.00000000       0.00000000       0.00000000       0.00000000       0.00000000    -392.94879150
Hf       0.00000000       0.00000000       1.06181818       0.00000000       0.00000000     392.94879150
2
Properties=species:S:1:pos:R:3:forces:R:3 energy=93.29730212309384 pbc="F F F"
Hf       0.00000000       0.00000000       0.00000000       0.00000000       0.00000000    -329.70404053
Hf       0.00000000       0.00000000       1.12060606       0.00000000       0.00000000     329.70404053
2
Properties=species:S:1:pos:R:3:forces:R:3 energy=75.00599708795319 pbc="F F F"
Hf       0.00000000       0.00000000       0.00000000       0.00000000       0.00000000    -294.78546143
Hf       0.00000000       0.00000000       1.17939394       0.00000000       0.00000000     294.78546143
2
Properties=species:S:1:pos:R:3:forces:R:3 energy=58.699715697067525 pbc="F F F"
Hf       0.00000000       0.00000000       0.00000000       0.00000000       0.00000000    -258.10092163
Hf       0.00000000       0.00000000       1.23818182       0.00000000       0.00000000     258.10092163
2
Properties=species:S:1:pos:R:3:forces:R:3 energy=44.824174843193035 pbc="F F F"
Hf       0.00000000       0.00000000       0.00000000       0.00000000       0.00000000    -213.73132324
Hf       0.00000000       0.00000000       1.29696970       0.00000000       0.00000000     213.73132324
2
Properties=species:S:1:pos:R:3:forces:R:3 energy=33.45257097547639 pbc="F F F"
Hf       0.00000000       0.00000000       0.00000000       0.00000000       0.00000000    -174.76434326
Hf       0.00000000       0.00000000       1.35575758       0.00000000       0.00000000     174.76434326
2
Properties=species:S:1:pos:R:3:forces:R:3 energy=24.119661758738502 pbc="F F F"
Hf       0.00000000       0.00000000       0.00000000       0.00000000       0.00000000    -143.56367493
Hf       0.00000000       0.00000000       1.41454545       0.00000000       0.00000000     143.56367493
2
Properties=species:S:1:pos:R:3:forces:R:3 energy=16.51062791089484 pbc="F F F"
Hf       0.00000000       0.00000000       0.00000000       0.00000000       0.00000000    -115.79211426
Hf       0.00000000       0.00000000       1.47333333       0.00000000       0.00000000     115.79211426
2
Properties=species:S:1:pos:R:3:forces:R:3 energy=10.430847442835633 pbc="F F F"
Hf       0.00000000       0.00000000       0.00000000       0.00000000       0.00000000     -91.79981995
Hf       0.00000000       0.00000000       1.53212121       0.00000000       0.00000000      91.79981995
2
Properties=species:S:1:pos:R:3:forces:R:3 energy=5.62900388636264 pbc="F F F"
Hf       0.00000000       0.00000000       0.00000000       0.00000000       0.00000000     -72.24006653
Hf       0.00000000       0.00000000       1.59090909       0.00000000       0.00000000      72.24006653
2
Properties=species:S:1:pos:R:3:forces:R:3 energy=1.8672957688525678 pbc="F F F"
Hf       0.00000000       0.00000000       0.00000000       0.00000000       0.00000000     -56.27784729
Hf       0.00000000       0.00000000       1.64969697       0.00000000       0.00000000      56.27784729
2
Properties=species:S:1:pos:R:3:forces:R:3 energy=-1.0502459257624106 pbc="F F F"
Hf       0.00000000       0.00000000       0.00000000       0.00000000       0.00000000     -43.49867249
Hf       0.00000000       0.00000000       1.70848485       0.00000000       0.00000000      43.49867249
2
Properties=species:S:1:pos:R:3:forces:R:3 energy=-3.304336892275829 pbc="F F F"
Hf       0.00000000       0.00000000       0.00000000       0.00000000       0.00000000     -33.62406921
Hf       0.00000000       0.00000000       1.76727273       0.00000000       0.00000000      33.62406921
2
Properties=species:S:1:pos:R:3:forces:R:3 energy=-5.047887980284884 pbc="F F F"
Hf       0.00000000       0.00000000       0.00000000       0.00000000       0.00000000     -26.01073265
Hf       0.00000000       0.00000000       1.82606061       0.00000000       0.00000000      26.01073265
2
Properties=species:S:1:pos:R:3:forces:R:3 energy=-6.394436120372953 pbc="F F F"
Hf       0.00000000       0.00000000       0.00000000       0.00000000       0.00000000     -20.03223419
Hf       0.00000000       0.00000000       1.88484848       0.00000000       0.00000000      20.03223419
2
Properties=species:S:1:pos:R:3:forces:R:3 energy=-7.427240539431571 pbc="F F F"
Hf       0.00000000       0.00000000       0.00000000       0.00000000       0.00000000     -15.28630447
Hf       0.00000000       0.00000000       1.94363636       0.00000000       0.00000000      15.28630447
2
Properties=species:S:1:pos:R:3:forces:R:3 energy=-8.211049397948779 pbc="F F F"
Hf       0.00000000       0.00000000       0.00000000       0.00000000       0.00000000     -11.52750015
Hf       0.00000000       0.00000000       2.00242424       0.00000000       0.00000000      11.52750015
2
Properties=species:S:1:pos:R:3:forces:R:3 energy=-8.798152067814376 pbc="F F F"
Hf       0.00000000       0.00000000       0.00000000       0.00000000       0.00000000      -8.56258202
Hf       0.00000000       0.00000000       2.06121212       0.00000000       0.00000000       8.56258202
2
Properties=species:S:1:pos:R:3:forces:R:3 energy=-9.229777784403948 pbc="F F F"
Hf       0.00000000       0.00000000       0.00000000       0.00000000       0.00000000      -6.21105909
Hf       0.00000000       0.00000000       2.12000000       0.00000000       0.00000000       6.21105909
2
Properties=species:S:1:pos:R:3:forces:R:3 energy=-9.537991882237224 pbc="F F F"
Hf       0.00000000       0.00000000       0.00000000       0.00000000       0.00000000      -4.35047197
Hf       0.00000000       0.00000000       2.17878788       0.00000000       0.00000000       4.35047197
2
Properties=species:S:1:pos:R:3:forces:R:3 energy=-9.749778034239483 pbc="F F F"
Hf       0.00000000       0.00000000       0.00000000       0.00000000       0.00000000      -2.92226815
Hf       0.00000000       0.00000000       2.23757576       0.00000000       0.00000000       2.92226815
2
Properties=species:S:1:pos:R:3:forces:R:3 energy=-9.888692439521057 pbc="F F F"
Hf       0.00000000       0.00000000       0.00000000       0.00000000       0.00000000      -1.85530758
Hf       0.00000000       0.00000000       2.29636364       0.00000000       0.00000000       1.85530758
2
Properties=species:S:1:pos:R:3:forces:R:3 energy=-9.972806497459054 pbc="F F F"
Hf       0.00000000       0.00000000       0.00000000       0.00000000       0.00000000      -1.03848243
Hf       0.00000000       0.00000000       2.35515152       0.00000000       0.00000000       1.03848243
2
Properties=species:S:1:pos:R:3:forces:R:3 energy=-10.013740909845046 pbc="F F F"
Hf       0.00000000       0.00000000       0.00000000       0.00000000       0.00000000      -0.37394488
Hf       0.00000000       0.00000000       2.41393939       0.00000000       0.00000000       0.37394488
2
Properties=species:S:1:pos:R:3:forces:R:3 energy=-10.018786028343946 pbc="F F F"
Hf       0.00000000       0.00000000       0.00000000       0.00000000       0.00000000       0.18660927
Hf       0.00000000       0.00000000       2.47272727       0.00000000       0.00000000      -0.18660927
2
Properties=species:S:1:pos:R:3:forces:R:3 energy=-9.993606363821717 pbc="F F F"
Hf       0.00000000       0.00000000       0.00000000       0.00000000       0.00000000       0.65471029
Hf       0.00000000       0.00000000       2.53151515       0.00000000       0.00000000      -0.65471029
2
Properties=species:S:1:pos:R:3:forces:R:3 energy=-9.943597430318926 pbc="F F F"
Hf       0.00000000       0.00000000       0.00000000       0.00000000       0.00000000       1.03172421
Hf       0.00000000       0.00000000       2.59030303       0.00000000       0.00000000      -1.03172421
2
Properties=species:S:1:pos:R:3:forces:R:3 energy=-9.873979800524458 pbc="F F F"
Hf       0.00000000       0.00000000       0.00000000       0.00000000       0.00000000       1.32318592
Hf       0.00000000       0.00000000       2.64909091       0.00000000       0.00000000      -1.32318592
2
Properties=species:S:1:pos:R:3:forces:R:3 energy=-9.789486677410732 pbc="F F F"
Hf       0.00000000       0.00000000       0.00000000       0.00000000       0.00000000       1.53989756
Hf       0.00000000       0.00000000       2.70787879       0.00000000       0.00000000      -1.53989756
2
Properties=species:S:1:pos:R:3:forces:R:3 energy=-9.694149931750301 pbc="F F F"
Hf       0.00000000       0.00000000       0.00000000       0.00000000       0.00000000       1.69405735
Hf       0.00000000       0.00000000       2.76666667       0.00000000       0.00000000      -1.69405735
2
Properties=species:S:1:pos:R:3:forces:R:3 energy=-9.591328008449432 pbc="F F F"
Hf       0.00000000       0.00000000       0.00000000       0.00000000       0.00000000       1.79605818
Hf       0.00000000       0.00000000       2.82545455       0.00000000       0.00000000      -1.79605818
2
Properties=species:S:1:pos:R:3:forces:R:3 energy=-9.483846904980771 pbc="F F F"
Hf       0.00000000       0.00000000       0.00000000       0.00000000       0.00000000       1.85362244
Hf       0.00000000       0.00000000       2.88424242       0.00000000       0.00000000      -1.85362244
2
Properties=species:S:1:pos:R:3:forces:R:3 energy=-9.374136980162843 pbc="F F F"
Hf       0.00000000       0.00000000       0.00000000       0.00000000       0.00000000       1.87290633
Hf       0.00000000       0.00000000       2.94303030       0.00000000       0.00000000      -1.87290633
2
Properties=species:S:1:pos:R:3:forces:R:3 energy=-9.264263487097718 pbc="F F F"
Hf       0.00000000       0.00000000       0.00000000       0.00000000       0.00000000       1.86033976
Hf       0.00000000       0.00000000       3.00181818       0.00000000       0.00000000      -1.86033976
2
Properties=species:S:1:pos:R:3:forces:R:3 energy=-9.155875497197236 pbc="F F F"
Hf       0.00000000       0.00000000       0.00000000       0.00000000       0.00000000       1.82387400
Hf       0.00000000       0.00000000       3.06060606       0.00000000       0.00000000      -1.82387400
2
Properties=species:S:1:pos:R:3:forces:R:3 energy=-9.050102347447803 pbc="F F F"
Hf       0.00000000       0.00000000       0.00000000       0.00000000       0.00000000       1.77310669
Hf       0.00000000       0.00000000       3.11939394       0.00000000       0.00000000      -1.77310669
2
Properties=species:S:1:pos:R:3:forces:R:3 energy=-8.947471459649279 pbc="F F F"
Hf       0.00000000       0.00000000       0.00000000       0.00000000       0.00000000       1.71873450
Hf       0.00000000       0.00000000       3.17818182       0.00000000       0.00000000      -1.71873450
2
Properties=species:S:1:pos:R:3:forces:R:3 energy=-8.847881578000104 pbc="F F F"
Hf       0.00000000       0.00000000       0.00000000       0.00000000       0.00000000       1.67128038
Hf       0.00000000       0.00000000       3.23696970       0.00000000       0.00000000      -1.67128038
2
Properties=species:S:1:pos:R:3:forces:R:3 energy=-8.750694482359174 pbc="F F F"
Hf       0.00000000       0.00000000       0.00000000       0.00000000       0.00000000       1.63755357
Hf       0.00000000       0.00000000       3.29575758       0.00000000       0.00000000      -1.63755357
2
Properties=species:S:1:pos:R:3:forces:R:3 energy=-8.65509962749196 pbc="F F F"
Hf       0.00000000       0.00000000       0.00000000       0.00000000       0.00000000       1.61608839
Hf       0.00000000       0.00000000       3.35454545       0.00000000       0.00000000      -1.61608839
2
Properties=species:S:1:pos:R:3:forces:R:3 energy=-8.560606733312268 pbc="F F F"
Hf       0.00000000       0.00000000       0.00000000       0.00000000       0.00000000       1.59848750
Hf       0.00000000       0.00000000       3.41333333       0.00000000       0.00000000      -1.59848750
2
Properties=species:S:1:pos:R:3:forces:R:3 energy=-8.467240593898467 pbc="F F F"
Hf       0.00000000       0.00000000       0.00000000       0.00000000       0.00000000       1.57673883
Hf       0.00000000       0.00000000       3.47212121       0.00000000       0.00000000      -1.57673883
2
Properties=species:S:1:pos:R:3:forces:R:3 energy=-8.375380480870174 pbc="F F F"
Hf       0.00000000       0.00000000       0.00000000       0.00000000       0.00000000       1.54694021
Hf       0.00000000       0.00000000       3.53090909       0.00000000       0.00000000      -1.54694021
2
Properties=species:S:1:pos:R:3:forces:R:3 energy=-8.285544048961764 pbc="F F F"
Hf       0.00000000       0.00000000       0.00000000       0.00000000       0.00000000       1.50772607
Hf       0.00000000       0.00000000       3.58969697       0.00000000       0.00000000      -1.50772607
2
Properties=species:S:1:pos:R:3:forces:R:3 energy=-8.198304146905548 pbc="F F F"
Hf       0.00000000       0.00000000       0.00000000       0.00000000       0.00000000       1.45853245
Hf       0.00000000       0.00000000       3.64848485       0.00000000       0.00000000      -1.45853245
2
Properties=species:S:1:pos:R:3:forces:R:3 energy=-8.114253016187654 pbc="F F F"
Hf       0.00000000       0.00000000       0.00000000       0.00000000       0.00000000       1.39932752
Hf       0.00000000       0.00000000       3.70727273       0.00000000       0.00000000      -1.39932752
2
Properties=species:S:1:pos:R:3:forces:R:3 energy=-8.03395608245454 pbc="F F F"
Hf       0.00000000       0.00000000       0.00000000       0.00000000       0.00000000       1.33096206
Hf       0.00000000       0.00000000       3.76606061       0.00000000       0.00000000      -1.33096206
2
Properties=species:S:1:pos:R:3:forces:R:3 energy=-7.957906711150908 pbc="F F F"
Hf       0.00000000       0.00000000       0.00000000       0.00000000       0.00000000       1.25529468
Hf       0.00000000       0.00000000       3.82484848       0.00000000       0.00000000      -1.25529468
2
Properties=species:S:1:pos:R:3:forces:R:3 energy=-7.886455640357423 pbc="F F F"
Hf       0.00000000       0.00000000       0.00000000       0.00000000       0.00000000       1.17495465
Hf       0.00000000       0.00000000       3.88363636       0.00000000       0.00000000      -1.17495465
2
Properties=species:S:1:pos:R:3:forces:R:3 energy=-7.819794338527967 pbc="F F F"
Hf       0.00000000       0.00000000       0.00000000       0.00000000       0.00000000       1.09289145
Hf       0.00000000       0.00000000       3.94242424       0.00000000       0.00000000      -1.09289145
2
Properties=species:S:1:pos:R:3:forces:R:3 energy=-7.75793864765058 pbc="F F F"
Hf       0.00000000       0.00000000       0.00000000       0.00000000       0.00000000       1.01188028
Hf       0.00000000       0.00000000       4.00121212       0.00000000       0.00000000      -1.01188028
2
Properties=species:S:1:pos:R:3:forces:R:3 energy=-7.700757035353191 pbc="F F F"
Hf       0.00000000       0.00000000       0.00000000       0.00000000       0.00000000       0.93416208
Hf       0.00000000       0.00000000       4.06000000       0.00000000       0.00000000      -0.93416208
2
Properties=species:S:1:pos:R:3:forces:R:3 energy=-7.648008760883216 pbc="F F F"
Hf       0.00000000       0.00000000       0.00000000       0.00000000       0.00000000       0.86128086
Hf       0.00000000       0.00000000       4.11878788       0.00000000       0.00000000      -0.86128086
2
Properties=species:S:1:pos:R:3:forces:R:3 energy=-7.599379395476096 pbc="F F F"
Hf       0.00000000       0.00000000       0.00000000       0.00000000       0.00000000       0.79407704
Hf       0.00000000       0.00000000       4.17757576       0.00000000       0.00000000      -0.79407704
2
Properties=species:S:1:pos:R:3:forces:R:3 energy=-7.554526885490322 pbc="F F F"
Hf       0.00000000       0.00000000       0.00000000       0.00000000       0.00000000       0.73279572
Hf       0.00000000       0.00000000       4.23636364       0.00000000       0.00000000      -0.73279572
2
Properties=species:S:1:pos:R:3:forces:R:3 energy=-7.513107027517428 pbc="F F F"
Hf       0.00000000       0.00000000       0.00000000       0.00000000       0.00000000       0.67724079
Hf       0.00000000       0.00000000       4.29515152       0.00000000       0.00000000      -0.67724079
2
Properties=species:S:1:pos:R:3:forces:R:3 energy=-7.474797373596354 pbc="F F F"
Hf       0.00000000       0.00000000       0.00000000       0.00000000       0.00000000       0.62694448
Hf       0.00000000       0.00000000       4.35393939       0.00000000       0.00000000      -0.62694448
2
Properties=species:S:1:pos:R:3:forces:R:3 energy=-7.439303322390542 pbc="F F F"
Hf       0.00000000       0.00000000       0.00000000       0.00000000       0.00000000       0.58129978
Hf       0.00000000       0.00000000       4.41272727       0.00000000       0.00000000      -0.58129978
2
Properties=species:S:1:pos:R:3:forces:R:3 energy=-7.406371635355119 pbc="F F F"
Hf       0.00000000       0.00000000       0.00000000       0.00000000       0.00000000       0.53966671
Hf       0.00000000       0.00000000       4.47151515       0.00000000       0.00000000      -0.53966671
2
Properties=species:S:1:pos:R:3:forces:R:3 energy=-7.37578463866327 pbc="F F F"
Hf       0.00000000       0.00000000       0.00000000       0.00000000       0.00000000       0.50142521
Hf       0.00000000       0.00000000       4.53030303       0.00000000       0.00000000      -0.50142521
2
Properties=species:S:1:pos:R:3:forces:R:3 energy=-7.34736179943753 pbc="F F F"
Hf       0.00000000       0.00000000       0.00000000       0.00000000       0.00000000       0.46597627
Hf       0.00000000       0.00000000       4.58909091       0.00000000       0.00000000      -0.46597627
2
Properties=species:S:1:pos:R:3:forces:R:3 energy=-7.3209547356306475 pbc="F F F"
Hf       0.00000000       0.00000000       0.00000000       0.00000000       0.00000000       0.43273664
Hf       0.00000000       0.00000000       4.64787879       0.00000000       0.00000000      -0.43273664
2
Properties=species:S:1:pos:R:3:forces:R:3 energy=-7.296450018363908 pbc="F F F"
Hf       0.00000000       0.00000000       0.00000000       0.00000000       0.00000000       0.40111044
Hf       0.00000000       0.00000000       4.70666667       0.00000000       0.00000000      -0.40111044
2
Properties=species:S:1:pos:R:3:forces:R:3 energy=-7.273773439782806 pbc="F F F"
Hf       0.00000000       0.00000000       0.00000000       0.00000000       0.00000000       0.37052271
Hf       0.00000000       0.00000000       4.76545455       0.00000000       0.00000000      -0.37052271
2
Properties=species:S:1:pos:R:3:forces:R:3 energy=-7.2528748127927765 pbc="F F F"
Hf       0.00000000       0.00000000       0.00000000       0.00000000       0.00000000       0.34045646
Hf       0.00000000       0.00000000       4.82424242       0.00000000       0.00000000      -0.34045646
2
Properties=species:S:1:pos:R:3:forces:R:3 energy=-7.233740825151542 pbc="F F F"
Hf       0.00000000       0.00000000       0.00000000       0.00000000       0.00000000       0.31059033
Hf       0.00000000       0.00000000       4.88303030       0.00000000       0.00000000      -0.31059033
2
Properties=species:S:1:pos:R:3:forces:R:3 energy=-7.216355292426572 pbc="F F F"
Hf       0.00000000       0.00000000       0.00000000       0.00000000       0.00000000       0.28088400
Hf       0.00000000       0.00000000       4.94181818       0.00000000       0.00000000      -0.28088400
2
Properties=species:S:1:pos:R:3:forces:R:3 energy=-7.200704228973608 pbc="F F F"
Hf       0.00000000       0.00000000       0.00000000       0.00000000       0.00000000       0.25173083
Hf       0.00000000       0.00000000       5.00060606       0.00000000       0.00000000      -0.25173083
2
Properties=species:S:1:pos:R:3:forces:R:3 energy=-7.186731117110634 pbc="F F F"
Hf       0.00000000       0.00000000       0.00000000       0.00000000       0.00000000       0.22392173
Hf       0.00000000       0.00000000       5.05939394       0.00000000       0.00000000      -0.22392173
2
Properties=species:S:1:pos:R:3:forces:R:3 energy=-7.174329084486191 pbc="F F F"
Hf       0.00000000       0.00000000       0.00000000       0.00000000       0.00000000       0.19853006
Hf       0.00000000       0.00000000       5.11818182       0.00000000       0.00000000      -0.19853006
2
Properties=species:S:1:pos:R:3:forces:R:3 energy=-7.163322339108433 pbc="F F F"
Hf       0.00000000       0.00000000       0.00000000       0.00000000       0.00000000       0.17654504
Hf       0.00000000       0.00000000       5.17696970       0.00000000       0.00000000      -0.17654504
2
Properties=species:S:1:pos:R:3:forces:R:3 energy=-7.153496677419782 pbc="F F F"
Hf       0.00000000       0.00000000       0.00000000       0.00000000       0.00000000       0.15836380
Hf       0.00000000       0.00000000       5.23575758       0.00000000       0.00000000      -0.15836380
2
Properties=species:S:1:pos:R:3:forces:R:3 energy=-7.1446422254109505 pbc="F F F"
Hf       0.00000000       0.00000000       0.00000000       0.00000000       0.00000000       0.14322717
Hf       0.00000000       0.00000000       5.29454545       0.00000000       0.00000000      -0.14322717
2
Properties=species:S:1:pos:R:3:forces:R:3 energy=-7.1366302949346085 pbc="F F F"
Hf       0.00000000       0.00000000       0.00000000       0.00000000       0.00000000       0.12943856
Hf       0.00000000       0.00000000       5.35333333       0.00000000       0.00000000      -0.12943856
2
Properties=species:S:1:pos:R:3:forces:R:3 energy=-7.129402741232441 pbc="F F F"
Hf       0.00000000       0.00000000       0.00000000       0.00000000       0.00000000       0.11689588
Hf       0.00000000       0.00000000       5.41212121       0.00000000       0.00000000      -0.11689588
2
Properties=species:S:1:pos:R:3:forces:R:3 energy=-7.122787373101948 pbc="F F F"
Hf       0.00000000       0.00000000       0.00000000       0.00000000       0.00000000       0.10927904
Hf       0.00000000       0.00000000       5.47090909       0.00000000       0.00000000      -0.10927904
2
Properties=species:S:1:pos:R:3:forces:R:3 energy=-7.116461204757038 pbc="F F F"
Hf       0.00000000       0.00000000       0.00000000       0.00000000       0.00000000       0.10593748
Hf       0.00000000       0.00000000       5.52969697       0.00000000       0.00000000      -0.10593748
2
Properties=species:S:1:pos:R:3:forces:R:3 energy=-7.110425369798491 pbc="F F F"
Hf       0.00000000       0.00000000       0.00000000       0.00000000       0.00000000       0.09824045
Hf       0.00000000       0.00000000       5.58848485       0.00000000       0.00000000      -0.09824045
2
Properties=species:S:1:pos:R:3:forces:R:3 energy=-7.105006421844721 pbc="F F F"
Hf       0.00000000       0.00000000       0.00000000       0.00000000       0.00000000       0.08615641
Hf       0.00000000       0.00000000       5.64727273       0.00000000       0.00000000      -0.08615641
2
Properties=species:S:1:pos:R:3:forces:R:3 energy=-7.100174479570308 pbc="F F F"
Hf       0.00000000       0.00000000       0.00000000       0.00000000       0.00000000       0.08027937
Hf       0.00000000       0.00000000       5.70606061       0.00000000       0.00000000      -0.08027937
2
Properties=species:S:1:pos:R:3:forces:R:3 energy=-7.09528572196927 pbc="F F F"
Hf       0.00000000       0.00000000       0.00000000       0.00000000       0.00000000       0.08719727
Hf       0.00000000       0.00000000       5.76484848       0.00000000       0.00000000      -0.08719727
2
Properties=species:S:1:pos:R:3:forces:R:3 energy=-7.090048390745502 pbc="F F F"
Hf       0.00000000       0.00000000       0.00000000       0.00000000       0.00000000       0.08749612
Hf       0.00000000       0.00000000       5.82363636       0.00000000       0.00000000      -0.08749612
2
Properties=species:S:1:pos:R:3:forces:R:3 energy=-7.085524603007405 pbc="F F F"
Hf       0.00000000       0.00000000       0.00000000       0.00000000       0.00000000       0.06341334
Hf       0.00000000       0.00000000       5.88242424       0.00000000       0.00000000      -0.06341334
2
Properties=species:S:1:pos:R:3:forces:R:3 energy=-7.082728983880724 pbc="F F F"
Hf       0.00000000       0.00000000       0.00000000       0.00000000       0.00000000       0.03270912
Hf       0.00000000       0.00000000       5.94121212       0.00000000       0.00000000      -0.03270912
2
Properties=species:S:1:pos:R:3:forces:R:3 energy=-7.081321576662359 pbc="F F F"
Hf       0.00000000       0.00000000       0.00000000       0.00000000       0.00000000       0.01939954
Hf       0.00000000       0.00000000       6.00000000       0.00000000       0.00000000      -0.01939954
