2
Properties=species:S:1:pos:R:3:forces:R:3 energy=19542.84006109493 pbc="F F F"
Hg       0.00000000       0.00000000       0.00000000       0.00000000       0.00000000 -291497.87500000
Hg       0.00000000       0.00000000       0.18000000       0.00000000       0.00000000  291497.87500000
2
Properties=species:S:1:pos:R:3:forces:R:3 energy=9369.140842344927 pbc="F F F"
Hg       0.00000000       0.00000000       0.00000000       0.00000000       0.00000000  -96399.72656250
Hg       0.00000000       0.00000000       0.23878788       0.00000000       0.00000000   96399.72656250
2
Properties=species:S:1:pos:R:3:forces:R:3 energy=5698.986057188677 pbc="F F F"
Hg       0.00000000       0.00000000       0.00000000       0.00000000       0.00000000  -38983.09375000
Hg       0.00000000       0.00000000       0.29757576       0.00000000       0.00000000   38983.09375000
2
Properties=species:S:1:pos:R:3:forces:R:3 energy=4075.05661383247 pbc="F F F"
Hg       0.00000000       0.00000000       0.00000000       0.00000000       0.00000000  -19633.37109375
Hg       0.00000000       0.00000000       0.35636364       0.00000000       0.00000000   19633.37109375
2
Properties=species:S:1:pos:R:3:forces:R:3 energy=3148.1513404013053 pbc="F F F"
Hg       0.00000000       0.00000000       0.00000000       0.00000000       0.00000000  -13103.28906250
Hg       0.00000000       0.00000000       0.41515152       0.00000000       0.00000000   13103.28906250
2
Properties=species:S:1:pos:R:3:forces:R:3 energy=2450.6701392421014 pbc="F F F"
Hg       0.00000000       0.00000000       0.00000000       0.00000000       0.00000000  -10985.41796875
Hg       0.00000000       0.00000000       0.47393939       0.00000000       0.00000000   10985.41796875
2
Properties=species:S:1:pos:R:3:forces:R:3 energy=1840.0064429752138 pbc="F F F"
Hg       0.00000000       0.00000000       0.00000000       0.00000000       0.00000000   -9774.56835938
Hg       0.00000000       0.00000000       0.53272727       0.00000000       0.00000000    9774.56835938
2
Properties=species:S:1:pos:R:3:forces:R:3 energy=1419.0240211445634 pbc="F F F"
Hg       0.00000000       0.00000000       0.00000000       0.00000000       0.00000000   -4456.86474609
Hg       0.00000000       0.00000000       0.59151515       0.00000000       0.00000000    4456.86474609
2
Properties=species:S:1:pos:R:3:forces:R:3 energy=1227.1026344955055 pbc="F F F"
Hg       0.00000000       0.00000000       0.00000000       0.00000000       0.00000000   -2507.71166992
Hg       0.00000000       0.00000000       0.65030303       0.00000000       0.00000000    2507.71166992
2
Properties=species:S:1:pos:R:3:forces:R:3 energy=1072.5309793297738 pbc="F F F"
Hg       0.00000000       0.00000000       0.00000000       0.00000000       0.00000000   -2722.29565430
Hg       0.00000000       0.00000000       0.70909091       0.00000000       0.00000000    2722.29565430
2
Properties=species:S:1:pos:R:3:forces:R:3 energy=911.6710551780944 pbc="F F F"
Hg       0.00000000       0.00000000       0.00000000       0.00000000       0.00000000   -2757.93920898
Hg       0.00000000       0.00000000       0.76787879       0.00000000       0.00000000    2757.93920898
2
Properties=species:S:1:pos:R:3:forces:R:3 energy=718.6313825704542 pbc="F F F"
Hg       0.00000000       0.00000000       0.00000000       0.00000000       0.00000000   -3511.86865234
Hg       0.00000000       0.00000000       0.82666667       0.00000000       0.00000000    3511.86865234
2
Properties=species:S:1:pos:R:3:forces:R:3 energy=532.3289537228637 pbc="F F F"
Hg       0.00000000       0.00000000       0.00000000       0.00000000       0.00000000   -2734.35400391
Hg       0.00000000       0.00000000       0.88545455       0.00000000       0.00000000    2734.35400391
2
Properties=species:S:1:pos:R:3:forces:R:3 energy=398.3194937614896 pbc="F F F"
Hg       0.00000000       0.00000000       0.00000000       0.00000000       0.00000000   -1836.76232910
Hg       0.00000000       0.00000000       0.94424242       0.00000000       0.00000000    1836.76232910
2
Properties=species:S:1:pos:R:3:forces:R:3 energy=311.09042949482944 pbc="F F F"
Hg       0.00000000       0.00000000       0.00000000       0.00000000       0.00000000   -1237.01220703
Hg       0.00000000       0.00000000       1.00303030       0.00000000       0.00000000    1237.01220703
2
Properties=species:S:1:pos:R:3:forces:R:3 energy=246.92255320672876 pbc="F F F"
Hg       0.00000000       0.00000000       0.00000000       0.00000000       0.00000000    -952.84576416
Hg       0.00000000       0.00000000       1.06181818       0.00000000       0.00000000     952.84576416
2
Properties=species:S:1:pos:R:3:forces:R:3 energy=198.21753732699307 pbc="F F F"
Hg       0.00000000       0.00000000       0.00000000       0.00000000       0.00000000    -715.58575439
Hg       0.00000000       0.00000000       1.12060606       0.00000000       0.00000000     715.58575439
2
Properties=species:S:1:pos:R:3:forces:R:3 energy=160.80945785304883 pbc="F F F"
Hg       0.00000000       0.00000000       0.00000000       0.00000000       0.00000000    -576.29418945
Hg       0.00000000       0.00000000       1.17939394       0.00000000       0.00000000     576.29418945
2
Properties=species:S:1:pos:R:3:forces:R:3 energy=129.747509219036 pbc="F F F"
Hg       0.00000000       0.00000000       0.00000000       0.00000000       0.00000000    -477.97906494
Hg       0.00000000       0.00000000       1.23818182       0.00000000       0.00000000     477.97906494
2
Properties=species:S:1:pos:R:3:forces:R:3 energy=104.16911980684851 pbc="F F F"
Hg       0.00000000       0.00000000       0.00000000       0.00000000       0.00000000    -399.77392578
Hg       0.00000000       0.00000000       1.29696970       0.00000000       0.00000000     399.77392578
2
Properties=species:S:1:pos:R:3:forces:R:3 energy=82.43487781376186 pbc="F F F"
Hg       0.00000000       0.00000000       0.00000000       0.00000000       0.00000000    -338.14794922
Hg       0.00000000       0.00000000       1.35575758       0.00000000       0.00000000     338.14794922
2
Properties=species:S:1:pos:R:3:forces:R:3 energy=64.57626227049964 pbc="F F F"
Hg       0.00000000       0.00000000       0.00000000       0.00000000       0.00000000    -268.69830322
Hg       0.00000000       0.00000000       1.41454545       0.00000000       0.00000000     268.69830322
2
Properties=species:S:1:pos:R:3:forces:R:3 energy=50.75517291160683 pbc="F F F"
Hg       0.00000000       0.00000000       0.00000000       0.00000000       0.00000000    -203.88607788
Hg       0.00000000       0.00000000       1.47333333       0.00000000       0.00000000     203.88607788
2
Properties=species:S:1:pos:R:3:forces:R:3 energy=40.249686092692095 pbc="F F F"
Hg       0.00000000       0.00000000       0.00000000       0.00000000       0.00000000    -156.41317749
Hg       0.00000000       0.00000000       1.53212121       0.00000000       0.00000000     156.41317749
2
Properties=species:S:1:pos:R:3:forces:R:3 energy=32.08984659433487 pbc="F F F"
Hg       0.00000000       0.00000000       0.00000000       0.00000000       0.00000000    -122.99830627
Hg       0.00000000       0.00000000       1.59090909       0.00000000       0.00000000     122.99830627
2
Properties=species:S:1:pos:R:3:forces:R:3 energy=25.62021338578125 pbc="F F F"
Hg       0.00000000       0.00000000       0.00000000       0.00000000       0.00000000     -98.23549652
Hg       0.00000000       0.00000000       1.64969697       0.00000000       0.00000000      98.23549652
2
Properties=species:S:1:pos:R:3:forces:R:3 energy=20.431067284972134 pbc="F F F"
Hg       0.00000000       0.00000000       0.00000000       0.00000000       0.00000000     -79.05485535
Hg       0.00000000       0.00000000       1.70848485       0.00000000       0.00000000      79.05485535
2
Properties=species:S:1:pos:R:3:forces:R:3 energy=16.251502163493306 pbc="F F F"
Hg       0.00000000       0.00000000       0.00000000       0.00000000       0.00000000     -63.67045593
Hg       0.00000000       0.00000000       1.76727273       0.00000000       0.00000000      63.67045593
2
Properties=species:S:1:pos:R:3:forces:R:3 energy=12.88926811486736 pbc="F F F"
Hg       0.00000000       0.00000000       0.00000000       0.00000000       0.00000000     -51.14210129
Hg       0.00000000       0.00000000       1.82606061       0.00000000       0.00000000      51.14210129
2
Properties=species:S:1:pos:R:3:forces:R:3 energy=10.192666481581242 pbc="F F F"
Hg       0.00000000       0.00000000       0.00000000       0.00000000       0.00000000     -40.95095825
Hg       0.00000000       0.00000000       1.88484848       0.00000000       0.00000000      40.95095825
2
Properties=species:S:1:pos:R:3:forces:R:3 energy=8.036771140052416 pbc="F F F"
Hg       0.00000000       0.00000000       0.00000000       0.00000000       0.00000000     -32.68297958
Hg       0.00000000       0.00000000       1.94363636       0.00000000       0.00000000      32.68297958
2
Properties=species:S:1:pos:R:3:forces:R:3 energy=6.31913457251578 pbc="F F F"
Hg       0.00000000       0.00000000       0.00000000       0.00000000       0.00000000     -25.98949432
Hg       0.00000000       0.00000000       2.00242424       0.00000000       0.00000000      25.98949432
2
Properties=species:S:1:pos:R:3:forces:R:3 energy=4.955650370008859 pbc="F F F"
Hg       0.00000000       0.00000000       0.00000000       0.00000000       0.00000000     -20.59333801
Hg       0.00000000       0.00000000       2.06121212       0.00000000       0.00000000      20.59333801
2
Properties=species:S:1:pos:R:3:forces:R:3 energy=3.8768357560334943 pbc="F F F"
Hg       0.00000000       0.00000000       0.00000000       0.00000000       0.00000000     -16.27081299
Hg       0.00000000       0.00000000       2.12000000       0.00000000       0.00000000      16.27081299
2
Properties=species:S:1:pos:R:3:forces:R:3 energy=3.025275980974259 pbc="F F F"
Hg       0.00000000       0.00000000       0.00000000       0.00000000       0.00000000     -12.83301735
Hg       0.00000000       0.00000000       2.17878788       0.00000000       0.00000000      12.83301735
2
Properties=species:S:1:pos:R:3:forces:R:3 energy=2.3539023680855338 pbc="F F F"
Hg       0.00000000       0.00000000       0.00000000       0.00000000       0.00000000     -10.11482811
Hg       0.00000000       0.00000000       2.23757576       0.00000000       0.00000000      10.11482811
2
Properties=species:S:1:pos:R:3:forces:R:3 energy=1.8247474889083253 pbc="F F F"
Hg       0.00000000       0.00000000       0.00000000       0.00000000       0.00000000      -7.97272301
Hg       0.00000000       0.00000000       2.29636364       0.00000000       0.00000000       7.97272301
2
Properties=species:S:1:pos:R:3:forces:R:3 energy=1.4075843690551586 pbc="F F F"
Hg       0.00000000       0.00000000       0.00000000       0.00000000       0.00000000      -6.28660297
Hg       0.00000000       0.00000000       2.35515152       0.00000000       0.00000000       6.28660297
2
Properties=species:S:1:pos:R:3:forces:R:3 energy=1.0785632527883815 pbc="F F F"
Hg       0.00000000       0.00000000       0.00000000       0.00000000       0.00000000      -4.95989037
Hg       0.00000000       0.00000000       2.41393939       0.00000000       0.00000000       4.95989037
2
Properties=species:S:1:pos:R:3:forces:R:3 energy=0.8188804469846698 pbc="F F F"
Hg       0.00000000       0.00000000       0.00000000       0.00000000       0.00000000      -3.91647577
Hg       0.00000000       0.00000000       2.47272727       0.00000000       0.00000000       3.91647577
2
Properties=species:S:1:pos:R:3:forces:R:3 energy=0.6137123956813386 pbc="F F F"
Hg       0.00000000       0.00000000       0.00000000       0.00000000       0.00000000      -3.09642649
Hg       0.00000000       0.00000000       2.53151515       0.00000000       0.00000000       3.09642649
2
Properties=species:S:1:pos:R:3:forces:R:3 energy=0.45137968916731547 pbc="F F F"
Hg       0.00000000       0.00000000       0.00000000       0.00000000       0.00000000      -2.45210004
Hg       0.00000000       0.00000000       2.59030303       0.00000000       0.00000000       2.45210004
2
Properties=species:S:1:pos:R:3:forces:R:3 energy=0.32271087617891214 pbc="F F F"
Hg       0.00000000       0.00000000       0.00000000       0.00000000       0.00000000      -1.94552922
Hg       0.00000000       0.00000000       2.64909091       0.00000000       0.00000000       1.94552922
2
Properties=species:S:1:pos:R:3:forces:R:3 energy=0.22052649866411003 pbc="F F F"
Hg       0.00000000       0.00000000       0.00000000       0.00000000       0.00000000      -1.54661036
Hg       0.00000000       0.00000000       2.70787879       0.00000000       0.00000000       1.54661036
2
Properties=species:S:1:pos:R:3:forces:R:3 energy=0.1392223397699965 pbc="F F F"
Hg       0.00000000       0.00000000       0.00000000       0.00000000       0.00000000      -1.23178637
Hg       0.00000000       0.00000000       2.76666667       0.00000000       0.00000000       1.23178637
2
Properties=species:S:1:pos:R:3:forces:R:3 energy=0.07441108084234627 pbc="F F F"
Hg       0.00000000       0.00000000       0.00000000       0.00000000       0.00000000      -0.98283058
Hg       0.00000000       0.00000000       2.82545455       0.00000000       0.00000000       0.98283058
2
Properties=species:S:1:pos:R:3:forces:R:3 energy=0.022650952164412652 pbc="F F F"
Hg       0.00000000       0.00000000       0.00000000       0.00000000       0.00000000      -0.78572029
Hg       0.00000000       0.00000000       2.88424242       0.00000000       0.00000000       0.78572029
2
Properties=species:S:1:pos:R:3:forces:R:3 energy=-0.018771645025928638 pbc="F F F"
Hg       0.00000000       0.00000000       0.00000000       0.00000000       0.00000000      -0.62952459
Hg       0.00000000       0.00000000       2.94303030       0.00000000       0.00000000       0.62952459
2
Properties=species:S:1:pos:R:3:forces:R:3 energy=-0.051994001196076764 pbc="F F F"
Hg       0.00000000       0.00000000       0.00000000       0.00000000       0.00000000      -0.50542772
Hg       0.00000000       0.00000000       3.00181818       0.00000000       0.00000000       0.50542772
2
Properties=species:S:1:pos:R:3:forces:R:3 energy=-0.07868081510586976 pbc="F F F"
Hg       0.00000000       0.00000000       0.00000000       0.00000000       0.00000000      -0.40604168
Hg       0.00000000       0.00000000       3.06060606       0.00000000       0.00000000       0.40604168
2
Properties=species:S:1:pos:R:3:forces:R:3 energy=-0.10009783754822385 pbc="F F F"
Hg       0.00000000       0.00000000       0.00000000       0.00000000       0.00000000      -0.32526824
Hg       0.00000000       0.00000000       3.11939394       0.00000000       0.00000000       0.32526824
2
Properties=species:S:1:pos:R:3:forces:R:3 energy=-0.11720237543504956 pbc="F F F"
Hg       0.00000000       0.00000000       0.00000000       0.00000000       0.00000000      -0.25874475
Hg       0.00000000       0.00000000       3.17818182       0.00000000       0.00000000       0.25874475
2
Properties=species:S:1:pos:R:3:forces:R:3 energy=-0.13075014394011691 pbc="F F F"
Hg       0.00000000       0.00000000       0.00000000       0.00000000       0.00000000      -0.20401374
Hg       0.00000000       0.00000000       3.23696970       0.00000000       0.00000000       0.20401374
2
Properties=species:S:1:pos:R:3:forces:R:3 energy=-0.1413919241677276 pbc="F F F"
Hg       0.00000000       0.00000000       0.00000000       0.00000000       0.00000000      -0.15961713
Hg       0.00000000       0.00000000       3.29575758       0.00000000       0.00000000       0.15961713
2
Properties=species:S:1:pos:R:3:forces:R:3 energy=-0.14969164577607535 pbc="F F F"
Hg       0.00000000       0.00000000       0.00000000       0.00000000       0.00000000      -0.12408918
Hg       0.00000000       0.00000000       3.35454545       0.00000000       0.00000000       0.12408918
2
Properties=species:S:1:pos:R:3:forces:R:3 energy=-0.1561254129237239 pbc="F F F"
Hg       0.00000000       0.00000000       0.00000000       0.00000000       0.00000000      -0.09589394
Hg       0.00000000       0.00000000       3.41333333       0.00000000       0.00000000       0.09589394
2
Properties=species:S:1:pos:R:3:forces:R:3 energy=-0.1610848041286897 pbc="F F F"
Hg       0.00000000       0.00000000       0.00000000       0.00000000       0.00000000      -0.07375385
Hg       0.00000000       0.00000000       3.47212121       0.00000000       0.00000000       0.07375385
2
Properties=species:S:1:pos:R:3:forces:R:3 energy=-0.16489724339389875 pbc="F F F"
Hg       0.00000000       0.00000000       0.00000000       0.00000000       0.00000000      -0.05674604
Hg       0.00000000       0.00000000       3.53090909       0.00000000       0.00000000       0.05674604
2
Properties=species:S:1:pos:R:3:forces:R:3 energy=-0.16784364248721695 pbc="F F F"
Hg       0.00000000       0.00000000       0.00000000       0.00000000       0.00000000      -0.04417087
Hg       0.00000000       0.00000000       3.58969697       0.00000000       0.00000000       0.04417087
2
Properties=species:S:1:pos:R:3:forces:R:3 energy=-0.17016562777141642 pbc="F F F"
Hg       0.00000000       0.00000000       0.00000000       0.00000000       0.00000000      -0.03541310
Hg       0.00000000       0.00000000       3.64848485       0.00000000       0.00000000       0.03541310
2
Properties=species:S:1:pos:R:3:forces:R:3 energy=-0.1720700455209432 pbc="F F F"
Hg       0.00000000       0.00000000       0.00000000       0.00000000       0.00000000      -0.02985925
Hg       0.00000000       0.00000000       3.70727273       0.00000000       0.00000000       0.02985925
2
Properties=species:S:1:pos:R:3:forces:R:3 energy=-0.17372701100187404 pbc="F F F"
Hg       0.00000000       0.00000000       0.00000000       0.00000000       0.00000000      -0.02687973
Hg       0.00000000       0.00000000       3.76606061       0.00000000       0.00000000       0.02687973
2
Properties=species:S:1:pos:R:3:forces:R:3 energy=-0.17526869008055468 pbc="F F F"
Hg       0.00000000       0.00000000       0.00000000       0.00000000       0.00000000      -0.02585474
Hg       0.00000000       0.00000000       3.82484848       0.00000000       0.00000000       0.02585474
2
Properties=species:S:1:pos:R:3:forces:R:3 energy=-0.1767937327260442 pbc="F F F"
Hg       0.00000000       0.00000000       0.00000000       0.00000000       0.00000000      -0.02620527
Hg       0.00000000       0.00000000       3.88363636       0.00000000       0.00000000       0.02620527
2
Properties=species:S:1:pos:R:3:forces:R:3 energy=-0.17836676026499293 pbc="F F F"
Hg       0.00000000       0.00000000       0.00000000       0.00000000       0.00000000      -0.02742941
Hg       0.00000000       0.00000000       3.94242424       0.00000000       0.00000000       0.02742941
2
Properties=species:S:1:pos:R:3:forces:R:3 energy=-0.18002777153615113 pbc="F F F"
Hg       0.00000000       0.00000000       0.00000000       0.00000000       0.00000000      -0.02912511
Hg       0.00000000       0.00000000       4.00121212       0.00000000       0.00000000       0.02912511
2
Properties=species:S:1:pos:R:3:forces:R:3 energy=-0.1817946567268657 pbc="F F F"
Hg       0.00000000       0.00000000       0.00000000       0.00000000       0.00000000      -0.03099424
Hg       0.00000000       0.00000000       4.06000000       0.00000000       0.00000000       0.03099424
2
Properties=species:S:1:pos:R:3:forces:R:3 energy=-0.18367128905758195 pbc="F F F"
Hg       0.00000000       0.00000000       0.00000000       0.00000000       0.00000000      -0.03283904
Hg       0.00000000       0.00000000       4.11878788       0.00000000       0.00000000       0.03283904
2
Properties=species:S:1:pos:R:3:forces:R:3 energy=-0.18565282009176218 pbc="F F F"
Hg       0.00000000       0.00000000       0.00000000       0.00000000       0.00000000      -0.03454110
Hg       0.00000000       0.00000000       4.17757576       0.00000000       0.00000000       0.03454110
2
Properties=species:S:1:pos:R:3:forces:R:3 energy=-0.18772883221641182 pbc="F F F"
Hg       0.00000000       0.00000000       0.00000000       0.00000000       0.00000000      -0.03604598
Hg       0.00000000       0.00000000       4.23636364       0.00000000       0.00000000       0.03604598
2
Properties=species:S:1:pos:R:3:forces:R:3 energy=-0.18988686200573915 pbc="F F F"
Hg       0.00000000       0.00000000       0.00000000       0.00000000       0.00000000      -0.03733748
Hg       0.00000000       0.00000000       4.29515152       0.00000000       0.00000000       0.03733748
2
Properties=species:S:1:pos:R:3:forces:R:3 energy=-0.19211475143680168 pbc="F F F"
Hg       0.00000000       0.00000000       0.00000000       0.00000000       0.00000000      -0.03842992
Hg       0.00000000       0.00000000       4.35393939       0.00000000       0.00000000       0.03842992
2
Properties=species:S:1:pos:R:3:forces:R:3 energy=-0.19440182685110804 pbc="F F F"
Hg       0.00000000       0.00000000       0.00000000       0.00000000       0.00000000      -0.03935158
Hg       0.00000000       0.00000000       4.41272727       0.00000000       0.00000000       0.03935158
2
Properties=species:S:1:pos:R:3:forces:R:3 energy=-0.19673901247422482 pbc="F F F"
Hg       0.00000000       0.00000000       0.00000000       0.00000000       0.00000000      -0.04014046
Hg       0.00000000       0.00000000       4.47151515       0.00000000       0.00000000       0.04014046
2
Properties=species:S:1:pos:R:3:forces:R:3 energy=-0.19911963795431503 pbc="F F F"
Hg       0.00000000       0.00000000       0.00000000       0.00000000       0.00000000      -0.04083502
Hg       0.00000000       0.00000000       4.53030303       0.00000000       0.00000000       0.04083502
2
Properties=species:S:1:pos:R:3:forces:R:3 energy=-0.20153880665566834 pbc="F F F"
Hg       0.00000000       0.00000000       0.00000000       0.00000000       0.00000000      -0.04145987
Hg       0.00000000       0.00000000       4.58909091       0.00000000       0.00000000       0.04145987
2
Properties=species:S:1:pos:R:3:forces:R:3 energy=-0.20399280278007528 pbc="F F F"
Hg       0.00000000       0.00000000       0.00000000       0.00000000       0.00000000      -0.04201512
Hg       0.00000000       0.00000000       4.64787879       0.00000000       0.00000000       0.04201512
2
Properties=species:S:1:pos:R:3:forces:R:3 energy=-0.20647683278795573 pbc="F F F"
Hg       0.00000000       0.00000000       0.00000000       0.00000000       0.00000000      -0.04246474
Hg       0.00000000       0.00000000       4.70666667       0.00000000       0.00000000       0.04246474
2
Properties=species:S:1:pos:R:3:forces:R:3 energy=-0.20898247008818632 pbc="F F F"
Hg       0.00000000       0.00000000       0.00000000       0.00000000       0.00000000      -0.04274607
Hg       0.00000000       0.00000000       4.76545455       0.00000000       0.00000000       0.04274607
2
Properties=species:S:1:pos:R:3:forces:R:3 energy=-0.21149803930046937 pbc="F F F"
Hg       0.00000000       0.00000000       0.00000000       0.00000000       0.00000000      -0.04278950
Hg       0.00000000       0.00000000       4.82424242       0.00000000       0.00000000       0.04278950
2
Properties=species:S:1:pos:R:3:forces:R:3 energy=-0.21400804971921947 pbc="F F F"
Hg       0.00000000       0.00000000       0.00000000       0.00000000       0.00000000      -0.04257147
Hg       0.00000000       0.00000000       4.88303030       0.00000000       0.00000000       0.04257147
2
Properties=species:S:1:pos:R:3:forces:R:3 energy=-0.21649973094165686 pbc="F F F"
Hg       0.00000000       0.00000000       0.00000000       0.00000000       0.00000000      -0.04217263
Hg       0.00000000       0.00000000       4.94181818       0.00000000       0.00000000       0.04217263
2
Properties=species:S:1:pos:R:3:forces:R:3 energy=-0.21896779836355523 pbc="F F F"
Hg       0.00000000       0.00000000       0.00000000       0.00000000       0.00000000      -0.04182471
Hg       0.00000000       0.00000000       5.00060606       0.00000000       0.00000000       0.04182471
2
Properties=species:S:1:pos:R:3:forces:R:3 energy=-0.2214256081053197 pbc="F F F"
Hg       0.00000000       0.00000000       0.00000000       0.00000000       0.00000000      -0.04189610
Hg       0.00000000       0.00000000       5.05939394       0.00000000       0.00000000       0.04189610
2
Properties=species:S:1:pos:R:3:forces:R:3 energy=-0.22390988355591945 pbc="F F F"
Hg       0.00000000       0.00000000       0.00000000       0.00000000       0.00000000      -0.04277918
Hg       0.00000000       0.00000000       5.11818182       0.00000000       0.00000000       0.04277918
2
Properties=species:S:1:pos:R:3:forces:R:3 energy=-0.2264751898559333 pbc="F F F"
Hg       0.00000000       0.00000000       0.00000000       0.00000000       0.00000000      -0.04466498
Hg       0.00000000       0.00000000       5.17696970       0.00000000       0.00000000       0.04466498
2
Properties=species:S:1:pos:R:3:forces:R:3 energy=-0.22917507248728855 pbc="F F F"
Hg       0.00000000       0.00000000       0.00000000       0.00000000       0.00000000      -0.04724601
Hg       0.00000000       0.00000000       5.23575758       0.00000000       0.00000000       0.04724601
2
Properties=species:S:1:pos:R:3:forces:R:3 energy=-0.23202405326856046 pbc="F F F"
Hg       0.00000000       0.00000000       0.00000000       0.00000000       0.00000000      -0.04950740
Hg       0.00000000       0.00000000       5.29454545       0.00000000       0.00000000       0.04950740
2
Properties=species:S:1:pos:R:3:forces:R:3 energy=-0.2349613355240636 pbc="F F F"
Hg       0.00000000       0.00000000       0.00000000       0.00000000       0.00000000      -0.05002119
Hg       0.00000000       0.00000000       5.35333333       0.00000000       0.00000000       0.05002119
2
Properties=species:S:1:pos:R:3:forces:R:3 energy=-0.23786295328195817 pbc="F F F"
Hg       0.00000000       0.00000000       0.00000000       0.00000000       0.00000000      -0.04845965
Hg       0.00000000       0.00000000       5.41212121       0.00000000       0.00000000       0.04845965
2
Properties=species:S:1:pos:R:3:forces:R:3 energy=-0.24066446024593474 pbc="F F F"
Hg       0.00000000       0.00000000       0.00000000       0.00000000       0.00000000      -0.04713750
Hg       0.00000000       0.00000000       5.47090909       0.00000000       0.00000000       0.04713750
2
Properties=species:S:1:pos:R:3:forces:R:3 energy=-0.24343188610299127 pbc="F F F"
Hg       0.00000000       0.00000000       0.00000000       0.00000000       0.00000000      -0.04689948
Hg       0.00000000       0.00000000       5.52969697       0.00000000       0.00000000       0.04689948
2
Properties=species:S:1:pos:R:3:forces:R:3 energy=-0.2461160426558733 pbc="F F F"
Hg       0.00000000       0.00000000       0.00000000       0.00000000       0.00000000      -0.04366222
Hg       0.00000000       0.00000000       5.58848485       0.00000000       0.00000000       0.04366222
2
Properties=species:S:1:pos:R:3:forces:R:3 energy=-0.24849594757383103 pbc="F F F"
Hg       0.00000000       0.00000000       0.00000000       0.00000000       0.00000000      -0.03706169
Hg       0.00000000       0.00000000       5.64727273       0.00000000       0.00000000       0.03706169
2
Properties=species:S:1:pos:R:3:forces:R:3 energy=-0.2504991037616696 pbc="F F F"
Hg       0.00000000       0.00000000       0.00000000       0.00000000       0.00000000      -0.03181258
Hg       0.00000000       0.00000000       5.70606061       0.00000000       0.00000000       0.03181258
2
Properties=species:S:1:pos:R:3:forces:R:3 energy=-0.25233820052866285 pbc="F F F"
Hg       0.00000000       0.00000000       0.00000000       0.00000000       0.00000000      -0.03110505
Hg       0.00000000       0.00000000       5.76484848       0.00000000       0.00000000       0.03110505
2
Properties=species:S:1:pos:R:3:forces:R:3 energy=-0.25409576618701796 pbc="F F F"
Hg       0.00000000       0.00000000       0.00000000       0.00000000       0.00000000      -0.02730914
Hg       0.00000000       0.00000000       5.82363636       0.00000000       0.00000000       0.02730914
2
Properties=species:S:1:pos:R:3:forces:R:3 energy=-0.2553420525316602 pbc="F F F"
Hg       0.00000000       0.00000000       0.00000000       0.00000000       0.00000000      -0.01399493
Hg       0.00000000       0.00000000       5.88242424       0.00000000       0.00000000       0.01399493
2
Properties=species:S:1:pos:R:3:forces:R:3 energy=-0.2557187334150726 pbc="F F F"
Hg       0.00000000       0.00000000       0.00000000       0.00000000       0.00000000       0.00051395
Hg       0.00000000       0.00000000       5.94121212       0.00000000       0.00000000      -0.00051395
2
Properties=species:S:1:pos:R:3:forces:R:3 energy=-0.25546335745115756 pbc="F F F"
Hg       0.00000000       0.00000000       0.00000000       0.00000000       0.00000000       0.00617705
Hg       0.00000000       0.00000000       6.00000000       0.00000000       0.00000000      -0.00617705
