2
Properties=species:S:1:pos:R:3:forces:R:3 energy=90852.93576421993 pbc="F F F"
Hg       0.00000000       0.00000000       0.00000000       0.00000000       0.00000000 -2233198.50000000
Hg       0.00000000       0.00000000       0.10000000       0.00000000       0.00000000 2233198.50000000
2
Properties=species:S:1:pos:R:3:forces:R:3 energy=27011.10763921993 pbc="F F F"
Hg       0.00000000       0.00000000       0.00000000       0.00000000       0.00000000 -454978.96875000
Hg       0.00000000       0.00000000       0.15959596       0.00000000       0.00000000  454978.96875000
2
Properties=species:S:1:pos:R:3:forces:R:3 energy=11619.946506407427 pbc="F F F"
Hg       0.00000000       0.00000000       0.00000000       0.00000000       0.00000000 -136013.14062500
Hg       0.00000000       0.00000000       0.21919192       0.00000000       0.00000000  136013.14062500
2
Properties=species:S:1:pos:R:3:forces:R:3 energy=6537.658908751177 pbc="F F F"
Hg       0.00000000       0.00000000       0.00000000       0.00000000       0.00000000  -50984.42968750
Hg       0.00000000       0.00000000       0.27878788       0.00000000       0.00000000   50984.42968750
2
Properties=species:S:1:pos:R:3:forces:R:3 energy=4461.369846251177 pbc="F F F"
Hg       0.00000000       0.00000000       0.00000000       0.00000000       0.00000000  -23552.74804688
Hg       0.00000000       0.00000000       0.33838384       0.00000000       0.00000000   23552.74804688
2
Properties=species:S:1:pos:R:3:forces:R:3 energy=3382.9884986012626 pbc="F F F"
Hg       0.00000000       0.00000000       0.00000000       0.00000000       0.00000000  -14318.53125000
Hg       0.00000000       0.00000000       0.39797980       0.00000000       0.00000000   14318.53125000
2
Properties=species:S:1:pos:R:3:forces:R:3 energy=2633.5568579889336 pbc="F F F"
Hg       0.00000000       0.00000000       0.00000000       0.00000000       0.00000000  -11382.37988281
Hg       0.00000000       0.00000000       0.45757576       0.00000000       0.00000000   11382.37988281
2
Properties=species:S:1:pos:R:3:forces:R:3 energy=1994.7394751954407 pbc="F F F"
Hg       0.00000000       0.00000000       0.00000000       0.00000000       0.00000000  -10113.85546875
Hg       0.00000000       0.00000000       0.51717172       0.00000000       0.00000000   10113.85546875
2
Properties=species:S:1:pos:R:3:forces:R:3 energy=1484.9981422256421 pbc="F F F"
Hg       0.00000000       0.00000000       0.00000000       0.00000000       0.00000000   -4506.16259766
Hg       0.00000000       0.00000000       0.57676768       0.00000000       0.00000000    4506.16259766
2
Properties=species:S:1:pos:R:3:forces:R:3 energy=1261.602268265561 pbc="F F F"
Hg       0.00000000       0.00000000       0.00000000       0.00000000       0.00000000   -2442.07934570
Hg       0.00000000       0.00000000       0.63636364       0.00000000       0.00000000    2442.07934570
2
Properties=species:S:1:pos:R:3:forces:R:3 energy=1108.088718559076 pbc="F F F"
Hg       0.00000000       0.00000000       0.00000000       0.00000000       0.00000000   -2691.36328125
Hg       0.00000000       0.00000000       0.69595960       0.00000000       0.00000000    2691.36328125
2
Properties=species:S:1:pos:R:3:forces:R:3 energy=945.5484965431627 pbc="F F F"
Hg       0.00000000       0.00000000       0.00000000       0.00000000       0.00000000   -2735.13305664
Hg       0.00000000       0.00000000       0.75555556       0.00000000       0.00000000    2735.13305664
2
Properties=species:S:1:pos:R:3:forces:R:3 energy=759.4957623994137 pbc="F F F"
Hg       0.00000000       0.00000000       0.00000000       0.00000000       0.00000000   -3581.01733398
Hg       0.00000000       0.00000000       0.81515152       0.00000000       0.00000000    3581.01733398
2
Properties=species:S:1:pos:R:3:forces:R:3 energy=562.5329941773475 pbc="F F F"
Hg       0.00000000       0.00000000       0.00000000       0.00000000       0.00000000   -2907.42089844
Hg       0.00000000       0.00000000       0.87474747       0.00000000       0.00000000    2907.42089844
2
Properties=species:S:1:pos:R:3:forces:R:3 energy=417.2424367848571 pbc="F F F"
Hg       0.00000000       0.00000000       0.00000000       0.00000000       0.00000000   -1986.57714844
Hg       0.00000000       0.00000000       0.93434343       0.00000000       0.00000000    1986.57714844
2
Properties=species:S:1:pos:R:3:forces:R:3 energy=322.57040984637 pbc="F F F"
Hg       0.00000000       0.00000000       0.00000000       0.00000000       0.00000000   -1289.95056152
Hg       0.00000000       0.00000000       0.99393939       0.00000000       0.00000000    1289.95056152
2
Properties=species:S:1:pos:R:3:forces:R:3 energy=254.97115230734084 pbc="F F F"
Hg       0.00000000       0.00000000       0.00000000       0.00000000       0.00000000    -990.71783447
Hg       0.00000000       0.00000000       1.05353535       0.00000000       0.00000000     990.71783447
2
Properties=species:S:1:pos:R:3:forces:R:3 energy=203.66240715104786 pbc="F F F"
Hg       0.00000000       0.00000000       0.00000000       0.00000000       0.00000000    -741.50823975
Hg       0.00000000       0.00000000       1.11313131       0.00000000       0.00000000     741.50823975
2
Properties=species:S:1:pos:R:3:forces:R:3 energy=164.68663966031198 pbc="F F F"
Hg       0.00000000       0.00000000       0.00000000       0.00000000       0.00000000    -586.97296143
Hg       0.00000000       0.00000000       1.17272727       0.00000000       0.00000000     586.97296143
2
Properties=species:S:1:pos:R:3:forces:R:3 energy=132.57731245774968 pbc="F F F"
Hg       0.00000000       0.00000000       0.00000000       0.00000000       0.00000000    -488.09274292
Hg       0.00000000       0.00000000       1.23232323       0.00000000       0.00000000     488.09274292
2
Properties=species:S:1:pos:R:3:forces:R:3 energy=106.2010867196765 pbc="F F F"
Hg       0.00000000       0.00000000       0.00000000       0.00000000       0.00000000    -404.93823242
Hg       0.00000000       0.00000000       1.29191919       0.00000000       0.00000000     404.93823242
2
Properties=species:S:1:pos:R:3:forces:R:3 energy=83.87960258428589 pbc="F F F"
Hg       0.00000000       0.00000000       0.00000000       0.00000000       0.00000000    -342.92425537
Hg       0.00000000       0.00000000       1.35151515       0.00000000       0.00000000     342.92425537
2
Properties=species:S:1:pos:R:3:forces:R:3 energy=65.50609445973086 pbc="F F F"
Hg       0.00000000       0.00000000       0.00000000       0.00000000       0.00000000    -272.81832886
Hg       0.00000000       0.00000000       1.41111111       0.00000000       0.00000000     272.81832886
2
Properties=species:S:1:pos:R:3:forces:R:3 energy=51.29402534983145 pbc="F F F"
Hg       0.00000000       0.00000000       0.00000000       0.00000000       0.00000000    -206.43295288
Hg       0.00000000       0.00000000       1.47070707       0.00000000       0.00000000     206.43295288
2
Properties=species:S:1:pos:R:3:forces:R:3 energy=40.53519689412589 pbc="F F F"
Hg       0.00000000       0.00000000       0.00000000       0.00000000       0.00000000    -157.63636780
Hg       0.00000000       0.00000000       1.53030303       0.00000000       0.00000000     157.63636780
2
Properties=species:S:1:pos:R:3:forces:R:3 energy=32.214350541138344 pbc="F F F"
Hg       0.00000000       0.00000000       0.00000000       0.00000000       0.00000000    -123.48787689
Hg       0.00000000       0.00000000       1.58989899       0.00000000       0.00000000     123.48787689
2
Properties=species:S:1:pos:R:3:forces:R:3 energy=25.640078390113768 pbc="F F F"
Hg       0.00000000       0.00000000       0.00000000       0.00000000       0.00000000     -98.30973053
Hg       0.00000000       0.00000000       1.64949495       0.00000000       0.00000000      98.30973053
2
Properties=species:S:1:pos:R:3:forces:R:3 energy=20.38320249774459 pbc="F F F"
Hg       0.00000000       0.00000000       0.00000000       0.00000000       0.00000000     -78.87904358
Hg       0.00000000       0.00000000       1.70909091       0.00000000       0.00000000      78.87904358
2
Properties=species:S:1:pos:R:3:forces:R:3 energy=16.161704547824396 pbc="F F F"
Hg       0.00000000       0.00000000       0.00000000       0.00000000       0.00000000     -63.33811569
Hg       0.00000000       0.00000000       1.76868687       0.00000000       0.00000000      63.33811569
2
Properties=species:S:1:pos:R:3:forces:R:3 energy=12.776082903877295 pbc="F F F"
Hg       0.00000000       0.00000000       0.00000000       0.00000000       0.00000000     -50.71712875
Hg       0.00000000       0.00000000       1.82828283       0.00000000       0.00000000      50.71712875
2
Properties=species:S:1:pos:R:3:forces:R:3 energy=10.069276413548193 pbc="F F F"
Hg       0.00000000       0.00000000       0.00000000       0.00000000       0.00000000     -40.48106384
Hg       0.00000000       0.00000000       1.88787879       0.00000000       0.00000000      40.48106384
2
Properties=species:S:1:pos:R:3:forces:R:3 energy=7.912248159120619 pbc="F F F"
Hg       0.00000000       0.00000000       0.00000000       0.00000000       0.00000000     -32.20126343
Hg       0.00000000       0.00000000       1.94747475       0.00000000       0.00000000      32.20126343
2
Properties=species:S:1:pos:R:3:forces:R:3 energy=6.199475061172921 pbc="F F F"
Hg       0.00000000       0.00000000       0.00000000       0.00000000       0.00000000     -25.51901436
Hg       0.00000000       0.00000000       2.00707071       0.00000000       0.00000000      25.51901436
2
Properties=species:S:1:pos:R:3:forces:R:3 energy=4.844539957873978 pbc="F F F"
Hg       0.00000000       0.00000000       0.00000000       0.00000000       0.00000000     -20.15020752
Hg       0.00000000       0.00000000       2.06666667       0.00000000       0.00000000      20.15020752
2
Properties=species:S:1:pos:R:3:forces:R:3 energy=3.7762182214327535 pbc="F F F"
Hg       0.00000000       0.00000000       0.00000000       0.00000000       0.00000000     -15.86557293
Hg       0.00000000       0.00000000       2.12626263       0.00000000       0.00000000      15.86557293
2
Properties=species:S:1:pos:R:3:forces:R:3 energy=2.9358259969694447 pbc="F F F"
Hg       0.00000000       0.00000000       0.00000000       0.00000000       0.00000000     -12.47106743
Hg       0.00000000       0.00000000       2.18585859       0.00000000       0.00000000      12.47106743
2
Properties=species:S:1:pos:R:3:forces:R:3 energy=2.275465174844314 pbc="F F F"
Hg       0.00000000       0.00000000       0.00000000       0.00000000       0.00000000      -9.79716778
Hg       0.00000000       0.00000000       2.24545455       0.00000000       0.00000000       9.79716778
2
Properties=species:S:1:pos:R:3:forces:R:3 energy=1.7566881325731243 pbc="F F F"
Hg       0.00000000       0.00000000       0.00000000       0.00000000       0.00000000      -7.69742632
Hg       0.00000000       0.00000000       2.30505051       0.00000000       0.00000000       7.69742632
2
Properties=species:S:1:pos:R:3:forces:R:3 energy=1.3490232054463334 pbc="F F F"
Hg       0.00000000       0.00000000       0.00000000       0.00000000       0.00000000      -6.05020332
Hg       0.00000000       0.00000000       2.36464646       0.00000000       0.00000000       6.05020332
2
Properties=species:S:1:pos:R:3:forces:R:3 energy=1.0285058316768552 pbc="F F F"
Hg       0.00000000       0.00000000       0.00000000       0.00000000       0.00000000      -4.75842762
Hg       0.00000000       0.00000000       2.42424242       0.00000000       0.00000000       4.75842762
2
Properties=species:S:1:pos:R:3:forces:R:3 energy=0.7763196237679221 pbc="F F F"
Hg       0.00000000       0.00000000       0.00000000       0.00000000       0.00000000      -3.74596858
Hg       0.00000000       0.00000000       2.48383838       0.00000000       0.00000000       3.74596858
2
Properties=species:S:1:pos:R:3:forces:R:3 energy=0.5776664106638456 pbc="F F F"
Hg       0.00000000       0.00000000       0.00000000       0.00000000       0.00000000      -2.95293903
Hg       0.00000000       0.00000000       2.54343434       0.00000000       0.00000000       2.95293903
2
Properties=species:S:1:pos:R:3:forces:R:3 energy=0.42094106062426967 pbc="F F F"
Hg       0.00000000       0.00000000       0.00000000       0.00000000       0.00000000      -2.33188963
Hg       0.00000000       0.00000000       2.60303030       0.00000000       0.00000000       2.33188963
2
Properties=species:S:1:pos:R:3:forces:R:3 energy=0.2970620803775386 pbc="F F F"
Hg       0.00000000       0.00000000       0.00000000       0.00000000       0.00000000      -1.84509087
Hg       0.00000000       0.00000000       2.66262626       0.00000000       0.00000000       1.84509087
2
Properties=species:S:1:pos:R:3:forces:R:3 energy=0.19895006676325366 pbc="F F F"
Hg       0.00000000       0.00000000       0.00000000       0.00000000       0.00000000      -1.46281970
Hg       0.00000000       0.00000000       2.72222222       0.00000000       0.00000000       1.46281970
2
Properties=species:S:1:pos:R:3:forces:R:3 energy=0.12109312084360854 pbc="F F F"
Hg       0.00000000       0.00000000       0.00000000       0.00000000       0.00000000      -1.16194630
Hg       0.00000000       0.00000000       2.78181818       0.00000000       0.00000000       1.16194630
2
Properties=species:S:1:pos:R:3:forces:R:3 energy=0.05919435107790943 pbc="F F F"
Hg       0.00000000       0.00000000       0.00000000       0.00000000       0.00000000      -0.92469960
Hg       0.00000000       0.00000000       2.84141414       0.00000000       0.00000000       0.92469960
2
Properties=species:S:1:pos:R:3:forces:R:3 energy=0.009886132087619924 pbc="F F F"
Hg       0.00000000       0.00000000       0.00000000       0.00000000       0.00000000      -0.73741686
Hg       0.00000000       0.00000000       2.90101010       0.00000000       0.00000000       0.73741686
2
Properties=species:S:1:pos:R:3:forces:R:3 energy=-0.029478993520321267 pbc="F F F"
Hg       0.00000000       0.00000000       0.00000000       0.00000000       0.00000000      -0.58941931
Hg       0.00000000       0.00000000       2.96060606       0.00000000       0.00000000       0.58941931
2
Properties=species:S:1:pos:R:3:forces:R:3 energy=-0.060974566306845404 pbc="F F F"
Hg       0.00000000       0.00000000       0.00000000       0.00000000       0.00000000      -0.47200722
Hg       0.00000000       0.00000000       3.02020202       0.00000000       0.00000000       0.47200722
2
Properties=species:S:1:pos:R:3:forces:R:3 energy=-0.08620028996236564 pbc="F F F"
Hg       0.00000000       0.00000000       0.00000000       0.00000000       0.00000000      -0.37787944
Hg       0.00000000       0.00000000       3.07979798       0.00000000       0.00000000       0.37787944
2
Properties=species:S:1:pos:R:3:forces:R:3 energy=-0.10636028405085232 pbc="F F F"
Hg       0.00000000       0.00000000       0.00000000       0.00000000       0.00000000      -0.30119500
Hg       0.00000000       0.00000000       3.13939394       0.00000000       0.00000000       0.30119500
2
Properties=species:S:1:pos:R:3:forces:R:3 energy=-0.12236921921008698 pbc="F F F"
Hg       0.00000000       0.00000000       0.00000000       0.00000000       0.00000000      -0.23810744
Hg       0.00000000       0.00000000       3.19898990       0.00000000       0.00000000       0.23810744
2
Properties=species:S:1:pos:R:3:forces:R:3 energy=-0.13496960111225528 pbc="F F F"
Hg       0.00000000       0.00000000       0.00000000       0.00000000       0.00000000      -0.18656038
Hg       0.00000000       0.00000000       3.25858586       0.00000000       0.00000000       0.18656038
2
Properties=species:S:1:pos:R:3:forces:R:3 energy=-0.14480586444019605 pbc="F F F"
Hg       0.00000000       0.00000000       0.00000000       0.00000000       0.00000000      -0.14510508
Hg       0.00000000       0.00000000       3.31818182       0.00000000       0.00000000       0.14510508
2
Properties=species:S:1:pos:R:3:forces:R:3 energy=-0.15243370344283713 pbc="F F F"
Hg       0.00000000       0.00000000       0.00000000       0.00000000       0.00000000      -0.11214983
Hg       0.00000000       0.00000000       3.37777778       0.00000000       0.00000000       0.11214983
2
Properties=species:S:1:pos:R:3:forces:R:3 energy=-0.15831197149719042 pbc="F F F"
Hg       0.00000000       0.00000000       0.00000000       0.00000000       0.00000000      -0.08616754
Hg       0.00000000       0.00000000       3.43737374       0.00000000       0.00000000       0.08616754
2
Properties=species:S:1:pos:R:3:forces:R:3 energy=-0.1628192580554877 pbc="F F F"
Hg       0.00000000       0.00000000       0.00000000       0.00000000       0.00000000      -0.06598260
Hg       0.00000000       0.00000000       3.49696970       0.00000000       0.00000000       0.06598260
2
Properties=species:S:1:pos:R:3:forces:R:3 energy=-0.1662745269622869 pbc="F F F"
Hg       0.00000000       0.00000000       0.00000000       0.00000000       0.00000000      -0.05074919
Hg       0.00000000       0.00000000       3.55656566       0.00000000       0.00000000       0.05074919
2
Properties=species:S:1:pos:R:3:forces:R:3 energy=-0.16895288893973048 pbc="F F F"
Hg       0.00000000       0.00000000       0.00000000       0.00000000       0.00000000      -0.03979228
Hg       0.00000000       0.00000000       3.61616162       0.00000000       0.00000000       0.03979228
2
Properties=species:S:1:pos:R:3:forces:R:3 energy=-0.17108972596801136 pbc="F F F"
Hg       0.00000000       0.00000000       0.00000000       0.00000000       0.00000000      -0.03247640
Hg       0.00000000       0.00000000       3.67575758       0.00000000       0.00000000       0.03247640
2
Properties=species:S:1:pos:R:3:forces:R:3 energy=-0.17288324106410707 pbc="F F F"
Hg       0.00000000       0.00000000       0.00000000       0.00000000       0.00000000      -0.02815347
Hg       0.00000000       0.00000000       3.73535354       0.00000000       0.00000000       0.02815347
2
Properties=species:S:1:pos:R:3:forces:R:3 energy=-0.1744921147817929 pbc="F F F"
Hg       0.00000000       0.00000000       0.00000000       0.00000000       0.00000000      -0.02616956
Hg       0.00000000       0.00000000       3.79494949       0.00000000       0.00000000       0.02616956
2
Properties=species:S:1:pos:R:3:forces:R:3 energy=-0.1760362773642069 pbc="F F F"
Hg       0.00000000       0.00000000       0.00000000       0.00000000       0.00000000      -0.02589331
Hg       0.00000000       0.00000000       3.85454545       0.00000000       0.00000000       0.02589331
2
Properties=species:S:1:pos:R:3:forces:R:3 energy=-0.17760088535401847 pbc="F F F"
Hg       0.00000000       0.00000000       0.00000000       0.00000000       0.00000000      -0.02675928
Hg       0.00000000       0.00000000       3.91414141       0.00000000       0.00000000       0.02675928
2
Properties=species:S:1:pos:R:3:forces:R:3 energy=-0.17923901870360445 pbc="F F F"
Hg       0.00000000       0.00000000       0.00000000       0.00000000       0.00000000      -0.02829508
Hg       0.00000000       0.00000000       3.97373737       0.00000000       0.00000000       0.02829508
2
Properties=species:S:1:pos:R:3:forces:R:3 energy=-0.1809794049742424 pbc="F F F"
Hg       0.00000000       0.00000000       0.00000000       0.00000000       0.00000000      -0.03013937
Hg       0.00000000       0.00000000       4.03333333       0.00000000       0.00000000       0.03013937
2
Properties=species:S:1:pos:R:3:forces:R:3 energy=-0.18283253925361592 pbc="F F F"
Hg       0.00000000       0.00000000       0.00000000       0.00000000       0.00000000      -0.03203975
Hg       0.00000000       0.00000000       4.09292929       0.00000000       0.00000000       0.03203975
2
Properties=species:S:1:pos:R:3:forces:R:3 energy=-0.1847963346337269 pbc="F F F"
Hg       0.00000000       0.00000000       0.00000000       0.00000000       0.00000000      -0.03383782
Hg       0.00000000       0.00000000       4.15252525       0.00000000       0.00000000       0.03383782
2
Properties=species:S:1:pos:R:3:forces:R:3 energy=-0.18686184613269285 pbc="F F F"
Hg       0.00000000       0.00000000       0.00000000       0.00000000       0.00000000      -0.03545117
Hg       0.00000000       0.00000000       4.21212121       0.00000000       0.00000000       0.03545117
2
Properties=species:S:1:pos:R:3:forces:R:3 energy=-0.1890174463116745 pbc="F F F"
Hg       0.00000000       0.00000000       0.00000000       0.00000000       0.00000000      -0.03684770
Hg       0.00000000       0.00000000       4.27171717       0.00000000       0.00000000       0.03684770
2
Properties=species:S:1:pos:R:3:forces:R:3 energy=-0.1912496772249098 pbc="F F F"
Hg       0.00000000       0.00000000       0.00000000       0.00000000       0.00000000      -0.03803150
Hg       0.00000000       0.00000000       4.33131313       0.00000000       0.00000000       0.03803150
2
Properties=species:S:1:pos:R:3:forces:R:3 energy=-0.19354675031669552 pbc="F F F"
Hg       0.00000000       0.00000000       0.00000000       0.00000000       0.00000000      -0.03902676
Hg       0.00000000       0.00000000       4.39090909       0.00000000       0.00000000       0.03902676
2
Properties=species:S:1:pos:R:3:forces:R:3 energy=-0.19589852501656468 pbc="F F F"
Hg       0.00000000       0.00000000       0.00000000       0.00000000       0.00000000      -0.03987114
Hg       0.00000000       0.00000000       4.45050505       0.00000000       0.00000000       0.03987114
2
Properties=species:S:1:pos:R:3:forces:R:3 energy=-0.19829681784988792 pbc="F F F"
Hg       0.00000000       0.00000000       0.00000000       0.00000000       0.00000000      -0.04060513
Hg       0.00000000       0.00000000       4.51010101       0.00000000       0.00000000       0.04060513
2
Properties=species:S:1:pos:R:3:forces:R:3 energy=-0.20073673451685897 pbc="F F F"
Hg       0.00000000       0.00000000       0.00000000       0.00000000       0.00000000      -0.04126140
Hg       0.00000000       0.00000000       4.56969697       0.00000000       0.00000000       0.04126140
2
Properties=species:S:1:pos:R:3:forces:R:3 energy=-0.2032135485681994 pbc="F F F"
Hg       0.00000000       0.00000000       0.00000000       0.00000000       0.00000000      -0.04184870
Hg       0.00000000       0.00000000       4.62929293       0.00000000       0.00000000       0.04184870
2
Properties=species:S:1:pos:R:3:forces:R:3 energy=-0.20572276840736814 pbc="F F F"
Hg       0.00000000       0.00000000       0.00000000       0.00000000       0.00000000      -0.04234356
Hg       0.00000000       0.00000000       4.68888889       0.00000000       0.00000000       0.04234356
2
Properties=species:S:1:pos:R:3:forces:R:3 energy=-0.208257601571298 pbc="F F F"
Hg       0.00000000       0.00000000       0.00000000       0.00000000       0.00000000      -0.04268658
Hg       0.00000000       0.00000000       4.74848485       0.00000000       0.00000000       0.04268658
2
Properties=species:S:1:pos:R:3:forces:R:3 energy=-0.21080623838328402 pbc="F F F"
Hg       0.00000000       0.00000000       0.00000000       0.00000000       0.00000000      -0.04280359
Hg       0.00000000       0.00000000       4.80808081       0.00000000       0.00000000       0.04280359
2
Properties=species:S:1:pos:R:3:forces:R:3 energy=-0.21335411276172794 pbc="F F F"
Hg       0.00000000       0.00000000       0.00000000       0.00000000       0.00000000      -0.04265068
Hg       0.00000000       0.00000000       4.86767677       0.00000000       0.00000000       0.04265068
2
Properties=species:S:1:pos:R:3:forces:R:3 energy=-0.21588555631101605 pbc="F F F"
Hg       0.00000000       0.00000000       0.00000000       0.00000000       0.00000000      -0.04227797
Hg       0.00000000       0.00000000       4.92727273       0.00000000       0.00000000       0.04227797
2
Properties=species:S:1:pos:R:3:forces:R:3 energy=-0.21839278372171914 pbc="F F F"
Hg       0.00000000       0.00000000       0.00000000       0.00000000       0.00000000      -0.04188344
Hg       0.00000000       0.00000000       4.98686869       0.00000000       0.00000000       0.04188344
2
Properties=species:S:1:pos:R:3:forces:R:3 energy=-0.2208839482551421 pbc="F F F"
Hg       0.00000000       0.00000000       0.00000000       0.00000000       0.00000000      -0.04182301
Hg       0.00000000       0.00000000       5.04646465       0.00000000       0.00000000       0.04182301
2
Properties=species:S:1:pos:R:3:forces:R:3 energy=-0.22339249556678195 pbc="F F F"
Hg       0.00000000       0.00000000       0.00000000       0.00000000       0.00000000      -0.04251589
Hg       0.00000000       0.00000000       5.10606061       0.00000000       0.00000000       0.04251589
2
Properties=species:S:1:pos:R:3:forces:R:3 energy=-0.22597271042701805 pbc="F F F"
Hg       0.00000000       0.00000000       0.00000000       0.00000000       0.00000000      -0.04423006
Hg       0.00000000       0.00000000       5.16565657       0.00000000       0.00000000       0.04423006
2
Properties=species:S:1:pos:R:3:forces:R:3 energy=-0.22868159244935504 pbc="F F F"
Hg       0.00000000       0.00000000       0.00000000       0.00000000       0.00000000      -0.04677108
Hg       0.00000000       0.00000000       5.22525253       0.00000000       0.00000000       0.04677108
2
Properties=species:S:1:pos:R:3:forces:R:3 energy=-0.2315457495240339 pbc="F F F"
Hg       0.00000000       0.00000000       0.00000000       0.00000000       0.00000000      -0.04921985
Hg       0.00000000       0.00000000       5.28484848       0.00000000       0.00000000       0.04921985
2
Properties=species:S:1:pos:R:3:forces:R:3 energy=-0.23451660674139685 pbc="F F F"
Hg       0.00000000       0.00000000       0.00000000       0.00000000       0.00000000      -0.05009757
Hg       0.00000000       0.00000000       5.34444444       0.00000000       0.00000000       0.05009757
2
Properties=species:S:1:pos:R:3:forces:R:3 energy=-0.23747053798047738 pbc="F F F"
Hg       0.00000000       0.00000000       0.00000000       0.00000000       0.00000000      -0.04873507
Hg       0.00000000       0.00000000       5.40404040       0.00000000       0.00000000       0.04873507
2
Properties=species:S:1:pos:R:3:forces:R:3 energy=-0.24032266903688038 pbc="F F F"
Hg       0.00000000       0.00000000       0.00000000       0.00000000       0.00000000      -0.04720393
Hg       0.00000000       0.00000000       5.46363636       0.00000000       0.00000000       0.04720393
2
Properties=species:S:1:pos:R:3:forces:R:3 energy=-0.2431275626850904 pbc="F F F"
Hg       0.00000000       0.00000000       0.00000000       0.00000000       0.00000000      -0.04699240
Hg       0.00000000       0.00000000       5.52323232       0.00000000       0.00000000       0.04699240
2
Properties=species:S:1:pos:R:3:forces:R:3 energy=-0.24586745252507752 pbc="F F F"
Hg       0.00000000       0.00000000       0.00000000       0.00000000       0.00000000      -0.04416815
Hg       0.00000000       0.00000000       5.58282828       0.00000000       0.00000000       0.04416815
2
Properties=species:S:1:pos:R:3:forces:R:3 energy=-0.24831415298356457 pbc="F F F"
Hg       0.00000000       0.00000000       0.00000000       0.00000000       0.00000000      -0.03763412
Hg       0.00000000       0.00000000       5.64242424       0.00000000       0.00000000       0.03763412
2
Properties=species:S:1:pos:R:3:forces:R:3 energy=-0.25037267067169916 pbc="F F F"
Hg       0.00000000       0.00000000       0.00000000       0.00000000       0.00000000      -0.03202864
Hg       0.00000000       0.00000000       5.70202020       0.00000000       0.00000000       0.03202864
2
Properties=species:S:1:pos:R:3:forces:R:3 energy=-0.25223236018029316 pbc="F F F"
Hg       0.00000000       0.00000000       0.00000000       0.00000000       0.00000000      -0.03106723
Hg       0.00000000       0.00000000       5.76161616       0.00000000       0.00000000       0.03106723
2
Properties=species:S:1:pos:R:3:forces:R:3 energy=-0.2540280443938126 pbc="F F F"
Hg       0.00000000       0.00000000       0.00000000       0.00000000       0.00000000      -0.02765781
Hg       0.00000000       0.00000000       5.82121212       0.00000000       0.00000000       0.02765781
2
Properties=species:S:1:pos:R:3:forces:R:3 energy=-0.255314803057233 pbc="F F F"
Hg       0.00000000       0.00000000       0.00000000       0.00000000       0.00000000      -0.01442247
Hg       0.00000000       0.00000000       5.88080808       0.00000000       0.00000000       0.01442247
2
Properties=species:S:1:pos:R:3:forces:R:3 energy=-0.25572045611088406 pbc="F F F"
Hg       0.00000000       0.00000000       0.00000000       0.00000000       0.00000000       0.00033614
Hg       0.00000000       0.00000000       5.94040404       0.00000000       0.00000000      -0.00033614
2
Properties=species:S:1:pos:R:3:forces:R:3 energy=-0.25546335745115756 pbc="F F F"
Hg       0.00000000       0.00000000       0.00000000       0.00000000       0.00000000       0.00617705
Hg       0.00000000       0.00000000       6.00000000       0.00000000       0.00000000      -0.00617705
