2
Properties=species:S:1:pos:R:3:forces:R:3 energy=41417.46488984473 pbc="F F F"
In       0.00000000       0.00000000       0.00000000       0.00000000       0.00000000 -984698.00000000
In       0.00000000       0.00000000       0.10000000       0.00000000       0.00000000  984698.00000000
2
Properties=species:S:1:pos:R:3:forces:R:3 energy=12469.528366407229 pbc="F F F"
In       0.00000000       0.00000000       0.00000000       0.00000000       0.00000000 -214808.25000000
In       0.00000000       0.00000000       0.15959596       0.00000000       0.00000000  214808.25000000
2
Properties=species:S:1:pos:R:3:forces:R:3 energy=5052.630417188478 pbc="F F F"
In       0.00000000       0.00000000       0.00000000       0.00000000       0.00000000  -67387.04687500
In       0.00000000       0.00000000       0.21919192       0.00000000       0.00000000   67387.04687500
2
Properties=species:S:1:pos:R:3:forces:R:3 energy=2497.726852735353 pbc="F F F"
In       0.00000000       0.00000000       0.00000000       0.00000000       0.00000000  -25976.83789062
In       0.00000000       0.00000000       0.27878788       0.00000000       0.00000000   25976.83789062
2
Properties=species:S:1:pos:R:3:forces:R:3 energy=1449.7770236337906 pbc="F F F"
In       0.00000000       0.00000000       0.00000000       0.00000000       0.00000000  -11496.59863281
In       0.00000000       0.00000000       0.33838384       0.00000000       0.00000000   11496.59863281
2
Properties=species:S:1:pos:R:3:forces:R:3 energy=960.1310275463761 pbc="F F F"
In       0.00000000       0.00000000       0.00000000       0.00000000       0.00000000   -5769.85742188
In       0.00000000       0.00000000       0.39797980       0.00000000       0.00000000    5769.85742188
2
Properties=species:S:1:pos:R:3:forces:R:3 energy=698.0428317519305 pbc="F F F"
In       0.00000000       0.00000000       0.00000000       0.00000000       0.00000000   -3359.29199219
In       0.00000000       0.00000000       0.45757576       0.00000000       0.00000000    3359.29199219
2
Properties=species:S:1:pos:R:3:forces:R:3 energy=539.1520846942893 pbc="F F F"
In       0.00000000       0.00000000       0.00000000       0.00000000       0.00000000   -2129.60058594
In       0.00000000       0.00000000       0.51717172       0.00000000       0.00000000    2129.60058594
2
Properties=species:S:1:pos:R:3:forces:R:3 energy=429.6643222652922 pbc="F F F"
In       0.00000000       0.00000000       0.00000000       0.00000000       0.00000000   -1607.83593750
In       0.00000000       0.00000000       0.57676768       0.00000000       0.00000000    1607.83593750
2
Properties=species:S:1:pos:R:3:forces:R:3 energy=343.4598240122904 pbc="F F F"
In       0.00000000       0.00000000       0.00000000       0.00000000       0.00000000   -1305.89379883
In       0.00000000       0.00000000       0.63636364       0.00000000       0.00000000    1305.89379883
2
Properties=species:S:1:pos:R:3:forces:R:3 energy=272.19007919943215 pbc="F F F"
In       0.00000000       0.00000000       0.00000000       0.00000000       0.00000000   -1097.38708496
In       0.00000000       0.00000000       0.69595960       0.00000000       0.00000000    1097.38708496
2
Properties=species:S:1:pos:R:3:forces:R:3 energy=211.36390742263467 pbc="F F F"
In       0.00000000       0.00000000       0.00000000       0.00000000       0.00000000    -957.54553223
In       0.00000000       0.00000000       0.75555556       0.00000000       0.00000000     957.54553223
2
Properties=species:S:1:pos:R:3:forces:R:3 energy=157.6165320769054 pbc="F F F"
In       0.00000000       0.00000000       0.00000000       0.00000000       0.00000000    -857.25207520
In       0.00000000       0.00000000       0.81515152       0.00000000       0.00000000     857.25207520
2
Properties=species:S:1:pos:R:3:forces:R:3 energy=112.80761809507571 pbc="F F F"
In       0.00000000       0.00000000       0.00000000       0.00000000       0.00000000    -601.44000244
In       0.00000000       0.00000000       0.87474747       0.00000000       0.00000000     601.44000244
2
Properties=species:S:1:pos:R:3:forces:R:3 energy=83.62548185087081 pbc="F F F"
In       0.00000000       0.00000000       0.00000000       0.00000000       0.00000000    -404.12506104
In       0.00000000       0.00000000       0.93434343       0.00000000       0.00000000     404.12506104
2
Properties=species:S:1:pos:R:3:forces:R:3 energy=63.13131873683282 pbc="F F F"
In       0.00000000       0.00000000       0.00000000       0.00000000       0.00000000    -290.79113770
In       0.00000000       0.00000000       0.99393939       0.00000000       0.00000000     290.79113770
2
Properties=species:S:1:pos:R:3:forces:R:3 energy=48.686163184286116 pbc="F F F"
In       0.00000000       0.00000000       0.00000000       0.00000000       0.00000000    -195.39822388
In       0.00000000       0.00000000       1.05353535       0.00000000       0.00000000     195.39822388
2
Properties=species:S:1:pos:R:3:forces:R:3 energy=39.33552456962349 pbc="F F F"
In       0.00000000       0.00000000       0.00000000       0.00000000       0.00000000    -123.48268127
In       0.00000000       0.00000000       1.11313131       0.00000000       0.00000000     123.48268127
2
Properties=species:S:1:pos:R:3:forces:R:3 energy=33.46160890666486 pbc="F F F"
In       0.00000000       0.00000000       0.00000000       0.00000000       0.00000000     -76.97918701
In       0.00000000       0.00000000       1.17272727       0.00000000       0.00000000      76.97918701
2
Properties=species:S:1:pos:R:3:forces:R:3 energy=29.858577082655245 pbc="F F F"
In       0.00000000       0.00000000       0.00000000       0.00000000       0.00000000     -45.78750229
In       0.00000000       0.00000000       1.23232323       0.00000000       0.00000000      45.78750229
2
Properties=species:S:1:pos:R:3:forces:R:3 energy=27.803915981105476 pbc="F F F"
In       0.00000000       0.00000000       0.00000000       0.00000000       0.00000000     -25.17830658
In       0.00000000       0.00000000       1.29191919       0.00000000       0.00000000      25.17830658
2
Properties=species:S:1:pos:R:3:forces:R:3 energy=26.533831726395146 pbc="F F F"
In       0.00000000       0.00000000       0.00000000       0.00000000       0.00000000     -20.53597832
In       0.00000000       0.00000000       1.35151515       0.00000000       0.00000000      20.53597832
2
Properties=species:S:1:pos:R:3:forces:R:3 energy=25.05615789439388 pbc="F F F"
In       0.00000000       0.00000000       0.00000000       0.00000000       0.00000000     -30.55185127
In       0.00000000       0.00000000       1.41111111       0.00000000       0.00000000      30.55185127
2
Properties=species:S:1:pos:R:3:forces:R:3 energy=22.84221569559684 pbc="F F F"
In       0.00000000       0.00000000       0.00000000       0.00000000       0.00000000     -43.30665588
In       0.00000000       0.00000000       1.47070707       0.00000000       0.00000000      43.30665588
2
Properties=species:S:1:pos:R:3:forces:R:3 energy=20.001035023446544 pbc="F F F"
In       0.00000000       0.00000000       0.00000000       0.00000000       0.00000000     -50.93599701
In       0.00000000       0.00000000       1.53030303       0.00000000       0.00000000      50.93599701
2
Properties=species:S:1:pos:R:3:forces:R:3 energy=16.89673268919617 pbc="F F F"
In       0.00000000       0.00000000       0.00000000       0.00000000       0.00000000     -52.33813858
In       0.00000000       0.00000000       1.58989899       0.00000000       0.00000000      52.33813858
2
Properties=species:S:1:pos:R:3:forces:R:3 energy=13.846840433762358 pbc="F F F"
In       0.00000000       0.00000000       0.00000000       0.00000000       0.00000000     -49.49509048
In       0.00000000       0.00000000       1.64949495       0.00000000       0.00000000      49.49509048
2
Properties=species:S:1:pos:R:3:forces:R:3 energy=11.041697535654377 pbc="F F F"
In       0.00000000       0.00000000       0.00000000       0.00000000       0.00000000     -44.39183044
In       0.00000000       0.00000000       1.70909091       0.00000000       0.00000000      44.39183044
2
Properties=species:S:1:pos:R:3:forces:R:3 energy=8.573983221355524 pbc="F F F"
In       0.00000000       0.00000000       0.00000000       0.00000000       0.00000000     -38.35499191
In       0.00000000       0.00000000       1.76868687       0.00000000       0.00000000      38.35499191
2
Properties=species:S:1:pos:R:3:forces:R:3 energy=6.470619477567447 pbc="F F F"
In       0.00000000       0.00000000       0.00000000       0.00000000       0.00000000     -32.27630997
In       0.00000000       0.00000000       1.82828283       0.00000000       0.00000000      32.27630997
2
Properties=species:S:1:pos:R:3:forces:R:3 energy=4.718263226685743 pbc="F F F"
In       0.00000000       0.00000000       0.00000000       0.00000000       0.00000000     -26.62511444
In       0.00000000       0.00000000       1.88787879       0.00000000       0.00000000      26.62511444
2
Properties=species:S:1:pos:R:3:forces:R:3 energy=3.284267633612161 pbc="F F F"
In       0.00000000       0.00000000       0.00000000       0.00000000       0.00000000     -21.61777878
In       0.00000000       0.00000000       1.94747475       0.00000000       0.00000000      21.61777878
2
Properties=species:S:1:pos:R:3:forces:R:3 energy=2.1266942397262754 pbc="F F F"
In       0.00000000       0.00000000       0.00000000       0.00000000       0.00000000     -17.35673141
In       0.00000000       0.00000000       2.00707071       0.00000000       0.00000000      17.35673141
2
Properties=species:S:1:pos:R:3:forces:R:3 energy=1.200661305880835 pbc="F F F"
In       0.00000000       0.00000000       0.00000000       0.00000000       0.00000000     -13.83940029
In       0.00000000       0.00000000       2.06666667       0.00000000       0.00000000      13.83940029
2
Properties=species:S:1:pos:R:3:forces:R:3 energy=0.4638985739888616 pbc="F F F"
In       0.00000000       0.00000000       0.00000000       0.00000000       0.00000000     -10.98848915
In       0.00000000       0.00000000       2.12626263       0.00000000       0.00000000      10.98848915
2
Properties=species:S:1:pos:R:3:forces:R:3 energy=-0.1202284039718627 pbc="F F F"
In       0.00000000       0.00000000       0.00000000       0.00000000       0.00000000      -8.69905663
In       0.00000000       0.00000000       2.18585859       0.00000000       0.00000000       8.69905663
2
Properties=species:S:1:pos:R:3:forces:R:3 energy=-0.582066002243576 pbc="F F F"
In       0.00000000       0.00000000       0.00000000       0.00000000       0.00000000      -6.86837959
In       0.00000000       0.00000000       2.24545455       0.00000000       0.00000000       6.86837959
2
Properties=species:S:1:pos:R:3:forces:R:3 energy=-0.9462196925115507 pbc="F F F"
In       0.00000000       0.00000000       0.00000000       0.00000000       0.00000000      -5.40739346
In       0.00000000       0.00000000       2.30505051       0.00000000       0.00000000       5.40739346
2
Properties=species:S:1:pos:R:3:forces:R:3 energy=-1.232439396042453 pbc="F F F"
In       0.00000000       0.00000000       0.00000000       0.00000000       0.00000000      -4.24166441
In       0.00000000       0.00000000       2.36464646       0.00000000       0.00000000       4.24166441
2
Properties=species:S:1:pos:R:3:forces:R:3 energy=-1.4564139735854624 pbc="F F F"
In       0.00000000       0.00000000       0.00000000       0.00000000       0.00000000      -3.30908465
In       0.00000000       0.00000000       2.42424242       0.00000000       0.00000000       3.30908465
2
Properties=species:S:1:pos:R:3:forces:R:3 energy=-1.6304656943436848 pbc="F F F"
In       0.00000000       0.00000000       0.00000000       0.00000000       0.00000000      -2.55862069
In       0.00000000       0.00000000       2.48383838       0.00000000       0.00000000       2.55862069
2
Properties=species:S:1:pos:R:3:forces:R:3 energy=-1.7641915722005272 pbc="F F F"
In       0.00000000       0.00000000       0.00000000       0.00000000       0.00000000      -1.94992518
In       0.00000000       0.00000000       2.54343434       0.00000000       0.00000000       1.94992518
2
Properties=species:S:1:pos:R:3:forces:R:3 energy=-1.8650828292892518 pbc="F F F"
In       0.00000000       0.00000000       0.00000000       0.00000000       0.00000000      -1.45230448
In       0.00000000       0.00000000       2.60303030       0.00000000       0.00000000       1.45230448
2
Properties=species:S:1:pos:R:3:forces:R:3 energy=-1.9390418551646857 pbc="F F F"
In       0.00000000       0.00000000       0.00000000       0.00000000       0.00000000      -1.04279613
In       0.00000000       0.00000000       2.66262626       0.00000000       0.00000000       1.04279613
2
Properties=species:S:1:pos:R:3:forces:R:3 energy=-1.9907766291606566 pbc="F F F"
In       0.00000000       0.00000000       0.00000000       0.00000000       0.00000000      -0.70394009
In       0.00000000       0.00000000       2.72222222       0.00000000       0.00000000       0.70394009
2
Properties=species:S:1:pos:R:3:forces:R:3 energy=-2.0240747707072986 pbc="F F F"
In       0.00000000       0.00000000       0.00000000       0.00000000       0.00000000      -0.42203975
In       0.00000000       0.00000000       2.78181818       0.00000000       0.00000000       0.42203975
2
Properties=species:S:1:pos:R:3:forces:R:3 energy=-2.041993324519758 pbc="F F F"
In       0.00000000       0.00000000       0.00000000       0.00000000       0.00000000      -0.18618898
In       0.00000000       0.00000000       2.84141414       0.00000000       0.00000000       0.18618898
2
Properties=species:S:1:pos:R:3:forces:R:3 energy=-2.0470125454133723 pbc="F F F"
In       0.00000000       0.00000000       0.00000000       0.00000000       0.00000000       0.01207508
In       0.00000000       0.00000000       2.90101010       0.00000000       0.00000000      -0.01207508
2
Properties=species:S:1:pos:R:3:forces:R:3 energy=-2.0411769217252553 pbc="F F F"
In       0.00000000       0.00000000       0.00000000       0.00000000       0.00000000       0.17894170
In       0.00000000       0.00000000       2.96060606       0.00000000       0.00000000      -0.17894170
2
Properties=species:S:1:pos:R:3:forces:R:3 energy=-2.0262215548403537 pbc="F F F"
In       0.00000000       0.00000000       0.00000000       0.00000000       0.00000000       0.31869626
In       0.00000000       0.00000000       3.02020202       0.00000000       0.00000000      -0.31869626
2
Properties=species:S:1:pos:R:3:forces:R:3 energy=-2.0036708893462207 pbc="F F F"
In       0.00000000       0.00000000       0.00000000       0.00000000       0.00000000       0.43425304
In       0.00000000       0.00000000       3.07979798       0.00000000       0.00000000      -0.43425304
2
Properties=species:S:1:pos:R:3:forces:R:3 energy=-1.9748998669353424 pbc="F F F"
In       0.00000000       0.00000000       0.00000000       0.00000000       0.00000000       0.52777785
In       0.00000000       0.00000000       3.13939394       0.00000000       0.00000000      -0.52777785
2
Properties=species:S:1:pos:R:3:forces:R:3 energy=-1.9411636909225105 pbc="F F F"
In       0.00000000       0.00000000       0.00000000       0.00000000       0.00000000       0.60118139
In       0.00000000       0.00000000       3.19898990       0.00000000       0.00000000      -0.60118139
2
Properties=species:S:1:pos:R:3:forces:R:3 energy=-1.90360422903645 pbc="F F F"
In       0.00000000       0.00000000       0.00000000       0.00000000       0.00000000       0.65648055
In       0.00000000       0.00000000       3.25858586       0.00000000       0.00000000      -0.65648055
2
Properties=species:S:1:pos:R:3:forces:R:3 energy=-1.863227152960216 pbc="F F F"
In       0.00000000       0.00000000       0.00000000       0.00000000       0.00000000       0.69616884
In       0.00000000       0.00000000       3.31818182       0.00000000       0.00000000      -0.69616884
2
Properties=species:S:1:pos:R:3:forces:R:3 energy=-1.8208736881074898 pbc="F F F"
In       0.00000000       0.00000000       0.00000000       0.00000000       0.00000000       0.72340721
In       0.00000000       0.00000000       3.37777778       0.00000000       0.00000000      -0.72340721
2
Properties=species:S:1:pos:R:3:forces:R:3 energy=-1.7771871219028457 pbc="F F F"
In       0.00000000       0.00000000       0.00000000       0.00000000       0.00000000       0.74132347
In       0.00000000       0.00000000       3.43737374       0.00000000       0.00000000      -0.74132347
2
Properties=species:S:1:pos:R:3:forces:R:3 energy=-1.7326621773270738 pbc="F F F"
In       0.00000000       0.00000000       0.00000000       0.00000000       0.00000000       0.75169545
In       0.00000000       0.00000000       3.49696970       0.00000000       0.00000000      -0.75169545
2
Properties=species:S:1:pos:R:3:forces:R:3 energy=-1.6877324469191812 pbc="F F F"
In       0.00000000       0.00000000       0.00000000       0.00000000       0.00000000       0.75495738
In       0.00000000       0.00000000       3.55656566       0.00000000       0.00000000      -0.75495738
2
Properties=species:S:1:pos:R:3:forces:R:3 energy=-1.6428123645471617 pbc="F F F"
In       0.00000000       0.00000000       0.00000000       0.00000000       0.00000000       0.75145835
In       0.00000000       0.00000000       3.61616162       0.00000000       0.00000000      -0.75145835
2
Properties=species:S:1:pos:R:3:forces:R:3 energy=-1.5982809544150423 pbc="F F F"
In       0.00000000       0.00000000       0.00000000       0.00000000       0.00000000       0.74211287
In       0.00000000       0.00000000       3.67575758       0.00000000       0.00000000      -0.74211287
2
Properties=species:S:1:pos:R:3:forces:R:3 energy=-1.554449716161494 pbc="F F F"
In       0.00000000       0.00000000       0.00000000       0.00000000       0.00000000       0.72817987
In       0.00000000       0.00000000       3.73535354       0.00000000       0.00000000      -0.72817987
2
Properties=species:S:1:pos:R:3:forces:R:3 energy=-1.5115537630681473 pbc="F F F"
In       0.00000000       0.00000000       0.00000000       0.00000000       0.00000000       0.71090847
In       0.00000000       0.00000000       3.79494949       0.00000000       0.00000000      -0.71090847
2
Properties=species:S:1:pos:R:3:forces:R:3 energy=-1.4697605815020414 pbc="F F F"
In       0.00000000       0.00000000       0.00000000       0.00000000       0.00000000       0.69132596
In       0.00000000       0.00000000       3.85454545       0.00000000       0.00000000      -0.69132596
2
Properties=species:S:1:pos:R:3:forces:R:3 energy=-1.4291843895636487 pbc="F F F"
In       0.00000000       0.00000000       0.00000000       0.00000000       0.00000000       0.67019051
In       0.00000000       0.00000000       3.91414141       0.00000000       0.00000000      -0.67019051
2
Properties=species:S:1:pos:R:3:forces:R:3 energy=-1.3899003348480357 pbc="F F F"
In       0.00000000       0.00000000       0.00000000       0.00000000       0.00000000       0.64799523
In       0.00000000       0.00000000       3.97373737       0.00000000       0.00000000      -0.64799523
2
Properties=species:S:1:pos:R:3:forces:R:3 energy=-1.3519633640389552 pbc="F F F"
In       0.00000000       0.00000000       0.00000000       0.00000000       0.00000000       0.62504131
In       0.00000000       0.00000000       4.03333333       0.00000000       0.00000000      -0.62504131
2
Properties=species:S:1:pos:R:3:forces:R:3 energy=-1.315411659147626 pbc="F F F"
In       0.00000000       0.00000000       0.00000000       0.00000000       0.00000000       0.60151684
In       0.00000000       0.00000000       4.09292929       0.00000000       0.00000000      -0.60151684
2
Properties=species:S:1:pos:R:3:forces:R:3 energy=-1.2802753056168932 pbc="F F F"
In       0.00000000       0.00000000       0.00000000       0.00000000       0.00000000       0.57757622
In       0.00000000       0.00000000       4.15252525       0.00000000       0.00000000      -0.57757622
2
Properties=species:S:1:pos:R:3:forces:R:3 energy=-1.2465742462604896 pbc="F F F"
In       0.00000000       0.00000000       0.00000000       0.00000000       0.00000000       0.55340934
In       0.00000000       0.00000000       4.21212121       0.00000000       0.00000000      -0.55340934
2
Properties=species:S:1:pos:R:3:forces:R:3 energy=-1.214312850656775 pbc="F F F"
In       0.00000000       0.00000000       0.00000000       0.00000000       0.00000000       0.52926546
In       0.00000000       0.00000000       4.27171717       0.00000000       0.00000000      -0.52926546
2
Properties=species:S:1:pos:R:3:forces:R:3 energy=-1.1834831202963478 pbc="F F F"
In       0.00000000       0.00000000       0.00000000       0.00000000       0.00000000       0.50545853
In       0.00000000       0.00000000       4.33131313       0.00000000       0.00000000      -0.50545853
2
Properties=species:S:1:pos:R:3:forces:R:3 energy=-1.1540531727982892 pbc="F F F"
In       0.00000000       0.00000000       0.00000000       0.00000000       0.00000000       0.48232517
In       0.00000000       0.00000000       4.39090909       0.00000000       0.00000000      -0.48232517
2
Properties=species:S:1:pos:R:3:forces:R:3 energy=-1.1259740538467324 pbc="F F F"
In       0.00000000       0.00000000       0.00000000       0.00000000       0.00000000       0.46017084
In       0.00000000       0.00000000       4.45050505       0.00000000       0.00000000      -0.46017084
2
Properties=species:S:1:pos:R:3:forces:R:3 energy=-1.0991812278909567 pbc="F F F"
In       0.00000000       0.00000000       0.00000000       0.00000000       0.00000000       0.43919349
In       0.00000000       0.00000000       4.51010101       0.00000000       0.00000000      -0.43919349
2
Properties=species:S:1:pos:R:3:forces:R:3 energy=-1.073601634500145 pbc="F F F"
In       0.00000000       0.00000000       0.00000000       0.00000000       0.00000000       0.41941324
In       0.00000000       0.00000000       4.56969697       0.00000000       0.00000000      -0.41941324
2
Properties=species:S:1:pos:R:3:forces:R:3 energy=-1.049170170091644 pbc="F F F"
In       0.00000000       0.00000000       0.00000000       0.00000000       0.00000000       0.40063286
In       0.00000000       0.00000000       4.62929293       0.00000000       0.00000000      -0.40063286
2
Properties=species:S:1:pos:R:3:forces:R:3 energy=-1.0258379965672386 pbc="F F F"
In       0.00000000       0.00000000       0.00000000       0.00000000       0.00000000       0.38245651
In       0.00000000       0.00000000       4.68888889       0.00000000       0.00000000      -0.38245651
2
Properties=species:S:1:pos:R:3:forces:R:3 energy=-1.0035828206544992 pbc="F F F"
In       0.00000000       0.00000000       0.00000000       0.00000000       0.00000000       0.36436146
In       0.00000000       0.00000000       4.74848485       0.00000000       0.00000000      -0.36436146
2
Properties=species:S:1:pos:R:3:forces:R:3 energy=-0.9824166698530503 pbc="F F F"
In       0.00000000       0.00000000       0.00000000       0.00000000       0.00000000       0.34589291
In       0.00000000       0.00000000       4.80808081       0.00000000       0.00000000      -0.34589291
2
Properties=species:S:1:pos:R:3:forces:R:3 energy=-0.9623663401112146 pbc="F F F"
In       0.00000000       0.00000000       0.00000000       0.00000000       0.00000000       0.32688326
In       0.00000000       0.00000000       4.86767677       0.00000000       0.00000000      -0.32688326
2
Properties=species:S:1:pos:R:3:forces:R:3 energy=-0.9434577295558445 pbc="F F F"
In       0.00000000       0.00000000       0.00000000       0.00000000       0.00000000       0.30770683
In       0.00000000       0.00000000       4.92727273       0.00000000       0.00000000      -0.30770683
2
Properties=species:S:1:pos:R:3:forces:R:3 energy=-0.9256728767987044 pbc="F F F"
In       0.00000000       0.00000000       0.00000000       0.00000000       0.00000000       0.28940594
In       0.00000000       0.00000000       4.98686869       0.00000000       0.00000000      -0.28940594
2
Properties=species:S:1:pos:R:3:forces:R:3 energy=-0.9089153954101927 pbc="F F F"
In       0.00000000       0.00000000       0.00000000       0.00000000       0.00000000       0.27358896
In       0.00000000       0.00000000       5.04646465       0.00000000       0.00000000      -0.27358896
2
Properties=species:S:1:pos:R:3:forces:R:3 energy=-0.8929810248890493 pbc="F F F"
In       0.00000000       0.00000000       0.00000000       0.00000000       0.00000000       0.26195455
In       0.00000000       0.00000000       5.10606061       0.00000000       0.00000000      -0.26195455
2
Properties=species:S:1:pos:R:3:forces:R:3 energy=-0.8775875838722531 pbc="F F F"
In       0.00000000       0.00000000       0.00000000       0.00000000       0.00000000       0.25540358
In       0.00000000       0.00000000       5.16565657       0.00000000       0.00000000      -0.25540358
2
Properties=species:S:1:pos:R:3:forces:R:3 energy=-0.8624573051562611 pbc="F F F"
In       0.00000000       0.00000000       0.00000000       0.00000000       0.00000000       0.25277880
In       0.00000000       0.00000000       5.22525253       0.00000000       0.00000000      -0.25277880
2
Properties=species:S:1:pos:R:3:forces:R:3 energy=-0.8474665213829954 pbc="F F F"
In       0.00000000       0.00000000       0.00000000       0.00000000       0.00000000       0.24971053
In       0.00000000       0.00000000       5.28484848       0.00000000       0.00000000      -0.24971053
2
Properties=species:S:1:pos:R:3:forces:R:3 energy=-0.832834945632984 pbc="F F F"
In       0.00000000       0.00000000       0.00000000       0.00000000       0.00000000       0.23969051
In       0.00000000       0.00000000       5.34444444       0.00000000       0.00000000      -0.23969051
2
Properties=species:S:1:pos:R:3:forces:R:3 energy=-0.8190610863329366 pbc="F F F"
In       0.00000000       0.00000000       0.00000000       0.00000000       0.00000000       0.22205766
In       0.00000000       0.00000000       5.40404040       0.00000000       0.00000000      -0.22205766
2
Properties=species:S:1:pos:R:3:forces:R:3 energy=-0.8062092834214293 pbc="F F F"
In       0.00000000       0.00000000       0.00000000       0.00000000       0.00000000       0.21215843
In       0.00000000       0.00000000       5.46363636       0.00000000       0.00000000      -0.21215843
2
Properties=species:S:1:pos:R:3:forces:R:3 energy=-0.7934439681580314 pbc="F F F"
In       0.00000000       0.00000000       0.00000000       0.00000000       0.00000000       0.21715574
In       0.00000000       0.00000000       5.52323232       0.00000000       0.00000000      -0.21715574
2
Properties=species:S:1:pos:R:3:forces:R:3 energy=-0.7806297456445441 pbc="F F F"
In       0.00000000       0.00000000       0.00000000       0.00000000       0.00000000       0.20826454
In       0.00000000       0.00000000       5.58282828       0.00000000       0.00000000      -0.20826454
2
Properties=species:S:1:pos:R:3:forces:R:3 energy=-0.7690639448287792 pbc="F F F"
In       0.00000000       0.00000000       0.00000000       0.00000000       0.00000000       0.17844512
In       0.00000000       0.00000000       5.64242424       0.00000000       0.00000000      -0.17844512
2
Properties=species:S:1:pos:R:3:forces:R:3 energy=-0.7591477153136267 pbc="F F F"
In       0.00000000       0.00000000       0.00000000       0.00000000       0.00000000       0.15919921
In       0.00000000       0.00000000       5.70202020       0.00000000       0.00000000      -0.15919921
2
Properties=species:S:1:pos:R:3:forces:R:3 energy=-0.7493294801754992 pbc="F F F"
In       0.00000000       0.00000000       0.00000000       0.00000000       0.00000000       0.17516734
In       0.00000000       0.00000000       5.76161616       0.00000000       0.00000000      -0.17516734
2
Properties=species:S:1:pos:R:3:forces:R:3 energy=-0.7385214744061718 pbc="F F F"
In       0.00000000       0.00000000       0.00000000       0.00000000       0.00000000       0.17808309
In       0.00000000       0.00000000       5.82121212       0.00000000       0.00000000      -0.17808309
2
Properties=species:S:1:pos:R:3:forces:R:3 energy=-0.7294499142553141 pbc="F F F"
In       0.00000000       0.00000000       0.00000000       0.00000000       0.00000000       0.11876778
In       0.00000000       0.00000000       5.88080808       0.00000000       0.00000000      -0.11876778
2
Properties=species:S:1:pos:R:3:forces:R:3 energy=-0.7246531930653601 pbc="F F F"
In       0.00000000       0.00000000       0.00000000       0.00000000       0.00000000       0.04398572
In       0.00000000       0.00000000       5.94040404       0.00000000       0.00000000      -0.04398572
2
Properties=species:S:1:pos:R:3:forces:R:3 energy=-0.7232928856403121 pbc="F F F"
In       0.00000000       0.00000000       0.00000000       0.00000000       0.00000000       0.01224228
In       0.00000000       0.00000000       6.00000000       0.00000000       0.00000000      -0.01224228
