2
Properties=species:S:1:pos:R:3:forces:R:3 energy=83425.8122443955 pbc="F F F"
Ir       0.00000000       0.00000000       0.00000000       0.00000000       0.00000000 -2096614.50000000
Ir       0.00000000       0.00000000       0.10000000       0.00000000       0.00000000 2096614.50000000
2
Properties=species:S:1:pos:R:3:forces:R:3 energy=23363.073963145507 pbc="F F F"
Ir       0.00000000       0.00000000       0.00000000       0.00000000       0.00000000 -429239.62500000
Ir       0.00000000       0.00000000       0.15959596       0.00000000       0.00000000  429239.62500000
2
Properties=species:S:1:pos:R:3:forces:R:3 energy=8836.371814708009 pbc="F F F"
Ir       0.00000000       0.00000000       0.00000000       0.00000000       0.00000000 -128208.70312500
Ir       0.00000000       0.00000000       0.21919192       0.00000000       0.00000000  128208.70312500
2
Properties=species:S:1:pos:R:3:forces:R:3 energy=4078.8264045549263 pbc="F F F"
Ir       0.00000000       0.00000000       0.00000000       0.00000000       0.00000000  -46868.01562500
Ir       0.00000000       0.00000000       0.27878788       0.00000000       0.00000000   46868.01562500
2
Properties=species:S:1:pos:R:3:forces:R:3 energy=2238.6826057268013 pbc="F F F"
Ir       0.00000000       0.00000000       0.00000000       0.00000000       0.00000000  -19412.54492188
Ir       0.00000000       0.00000000       0.33838384       0.00000000       0.00000000   19412.54492188
2
Properties=species:S:1:pos:R:3:forces:R:3 energy=1440.5532111987193 pbc="F F F"
Ir       0.00000000       0.00000000       0.00000000       0.00000000       0.00000000   -8969.57714844
Ir       0.00000000       0.00000000       0.39797980       0.00000000       0.00000000    8969.57714844
2
Properties=species:S:1:pos:R:3:forces:R:3 energy=1047.6315803520154 pbc="F F F"
Ir       0.00000000       0.00000000       0.00000000       0.00000000       0.00000000   -4858.51660156
Ir       0.00000000       0.00000000       0.45757576       0.00000000       0.00000000    4858.51660156
2
Properties=species:S:1:pos:R:3:forces:R:3 energy=811.1464119139912 pbc="F F F"
Ir       0.00000000       0.00000000       0.00000000       0.00000000       0.00000000   -3337.39453125
Ir       0.00000000       0.00000000       0.51717172       0.00000000       0.00000000    3337.39453125
2
Properties=species:S:1:pos:R:3:forces:R:3 energy=631.0862923230987 pbc="F F F"
Ir       0.00000000       0.00000000       0.00000000       0.00000000       0.00000000   -2487.56567383
Ir       0.00000000       0.00000000       0.57676768       0.00000000       0.00000000    2487.56567383
2
Properties=species:S:1:pos:R:3:forces:R:3 energy=522.4523812536427 pbc="F F F"
Ir       0.00000000       0.00000000       0.00000000       0.00000000       0.00000000   -1817.50866699
Ir       0.00000000       0.00000000       0.63636364       0.00000000       0.00000000    1817.50866699
2
Properties=species:S:1:pos:R:3:forces:R:3 energy=413.9643747568805 pbc="F F F"
Ir       0.00000000       0.00000000       0.00000000       0.00000000       0.00000000   -1920.22265625
Ir       0.00000000       0.00000000       0.69595960       0.00000000       0.00000000    1920.22265625
2
Properties=species:S:1:pos:R:3:forces:R:3 energy=314.75758779956095 pbc="F F F"
Ir       0.00000000       0.00000000       0.00000000       0.00000000       0.00000000   -1415.39904785
Ir       0.00000000       0.00000000       0.75555556       0.00000000       0.00000000    1415.39904785
2
Properties=species:S:1:pos:R:3:forces:R:3 energy=244.08447706256229 pbc="F F F"
Ir       0.00000000       0.00000000       0.00000000       0.00000000       0.00000000   -1009.06481934
Ir       0.00000000       0.00000000       0.81515152       0.00000000       0.00000000    1009.06481934
2
Properties=species:S:1:pos:R:3:forces:R:3 energy=189.77988144158232 pbc="F F F"
Ir       0.00000000       0.00000000       0.00000000       0.00000000       0.00000000    -815.63745117
Ir       0.00000000       0.00000000       0.87474747       0.00000000       0.00000000     815.63745117
2
Properties=species:S:1:pos:R:3:forces:R:3 energy=145.78741974588124 pbc="F F F"
Ir       0.00000000       0.00000000       0.00000000       0.00000000       0.00000000    -668.07885742
Ir       0.00000000       0.00000000       0.93434343       0.00000000       0.00000000     668.07885742
2
Properties=species:S:1:pos:R:3:forces:R:3 energy=110.23018466800788 pbc="F F F"
Ir       0.00000000       0.00000000       0.00000000       0.00000000       0.00000000    -520.71783447
Ir       0.00000000       0.00000000       0.99393939       0.00000000       0.00000000     520.71783447
2
Properties=species:S:1:pos:R:3:forces:R:3 energy=83.72366240366692 pbc="F F F"
Ir       0.00000000       0.00000000       0.00000000       0.00000000       0.00000000    -374.49942017
Ir       0.00000000       0.00000000       1.05353535       0.00000000       0.00000000     374.49942017
2
Properties=species:S:1:pos:R:3:forces:R:3 energy=64.64577508065594 pbc="F F F"
Ir       0.00000000       0.00000000       0.00000000       0.00000000       0.00000000    -273.39907837
Ir       0.00000000       0.00000000       1.11313131       0.00000000       0.00000000     273.39907837
2
Properties=species:S:1:pos:R:3:forces:R:3 energy=50.42032036975325 pbc="F F F"
Ir       0.00000000       0.00000000       0.00000000       0.00000000       0.00000000    -208.61419678
Ir       0.00000000       0.00000000       1.17272727       0.00000000       0.00000000     208.61419678
2
Properties=species:S:1:pos:R:3:forces:R:3 energy=39.33730691725103 pbc="F F F"
Ir       0.00000000       0.00000000       0.00000000       0.00000000       0.00000000    -166.23355103
Ir       0.00000000       0.00000000       1.23232323       0.00000000       0.00000000     166.23355103
2
Properties=species:S:1:pos:R:3:forces:R:3 energy=30.35727941703687 pbc="F F F"
Ir       0.00000000       0.00000000       0.00000000       0.00000000       0.00000000    -136.47039795
Ir       0.00000000       0.00000000       1.29191919       0.00000000       0.00000000     136.47039795
2
Properties=species:S:1:pos:R:3:forces:R:3 energy=22.97132684717205 pbc="F F F"
Ir       0.00000000       0.00000000       0.00000000       0.00000000       0.00000000    -111.91790009
Ir       0.00000000       0.00000000       1.35151515       0.00000000       0.00000000     111.91790009
2
Properties=species:S:1:pos:R:3:forces:R:3 energy=16.963621427320973 pbc="F F F"
Ir       0.00000000       0.00000000       0.00000000       0.00000000       0.00000000     -90.22472382
Ir       0.00000000       0.00000000       1.41111111       0.00000000       0.00000000      90.22472382
2
Properties=species:S:1:pos:R:3:forces:R:3 energy=12.132489801848665 pbc="F F F"
Ir       0.00000000       0.00000000       0.00000000       0.00000000       0.00000000     -72.76472473
Ir       0.00000000       0.00000000       1.47070707       0.00000000       0.00000000      72.76472473
2
Properties=species:S:1:pos:R:3:forces:R:3 energy=8.188333683187349 pbc="F F F"
Ir       0.00000000       0.00000000       0.00000000       0.00000000       0.00000000     -60.35177231
Ir       0.00000000       0.00000000       1.53030303       0.00000000       0.00000000      60.35177231
2
Properties=species:S:1:pos:R:3:forces:R:3 energy=4.872677089613332 pbc="F F F"
Ir       0.00000000       0.00000000       0.00000000       0.00000000       0.00000000     -51.27295685
Ir       0.00000000       0.00000000       1.58989899       0.00000000       0.00000000      51.27295685
2
Properties=species:S:1:pos:R:3:forces:R:3 energy=2.053117241454932 pbc="F F F"
Ir       0.00000000       0.00000000       0.00000000       0.00000000       0.00000000     -43.45434570
Ir       0.00000000       0.00000000       1.64949495       0.00000000       0.00000000      43.45434570
2
Properties=species:S:1:pos:R:3:forces:R:3 energy=-0.31679622279128045 pbc="F F F"
Ir       0.00000000       0.00000000       0.00000000       0.00000000       0.00000000     -36.16771698
Ir       0.00000000       0.00000000       1.70909091       0.00000000       0.00000000      36.16771698
2
Properties=species:S:1:pos:R:3:forces:R:3 energy=-2.2696345365273096 pbc="F F F"
Ir       0.00000000       0.00000000       0.00000000       0.00000000       0.00000000     -29.47171402
Ir       0.00000000       0.00000000       1.76868687       0.00000000       0.00000000      29.47171402
2
Properties=species:S:1:pos:R:3:forces:R:3 energy=-3.8417185761628163 pbc="F F F"
Ir       0.00000000       0.00000000       0.00000000       0.00000000       0.00000000     -23.38714600
Ir       0.00000000       0.00000000       1.82828283       0.00000000       0.00000000      23.38714600
2
Properties=species:S:1:pos:R:3:forces:R:3 energy=-5.069607527316774 pbc="F F F"
Ir       0.00000000       0.00000000       0.00000000       0.00000000       0.00000000     -17.92962837
Ir       0.00000000       0.00000000       1.88787879       0.00000000       0.00000000      17.92962837
2
Properties=species:S:1:pos:R:3:forces:R:3 energy=-5.992611376154071 pbc="F F F"
Ir       0.00000000       0.00000000       0.00000000       0.00000000       0.00000000     -13.16639423
Ir       0.00000000       0.00000000       1.94747475       0.00000000       0.00000000      13.16639423
2
Properties=species:S:1:pos:R:3:forces:R:3 energy=-6.6533818293379285 pbc="F F F"
Ir       0.00000000       0.00000000       0.00000000       0.00000000       0.00000000      -9.12743378
Ir       0.00000000       0.00000000       2.00707071       0.00000000       0.00000000       9.12743378
2
Properties=species:S:1:pos:R:3:forces:R:3 energy=-7.0940242692132625 pbc="F F F"
Ir       0.00000000       0.00000000       0.00000000       0.00000000       0.00000000      -5.76682901
Ir       0.00000000       0.00000000       2.06666667       0.00000000       0.00000000       5.76682901
2
Properties=species:S:1:pos:R:3:forces:R:3 energy=-7.352605737257122 pbc="F F F"
Ir       0.00000000       0.00000000       0.00000000       0.00000000       0.00000000      -3.00414038
Ir       0.00000000       0.00000000       2.12626263       0.00000000       0.00000000       3.00414038
2
Properties=species:S:1:pos:R:3:forces:R:3 energy=-7.462583082301392 pbc="F F F"
Ir       0.00000000       0.00000000       0.00000000       0.00000000       0.00000000      -0.77035004
Ir       0.00000000       0.00000000       2.18585859       0.00000000       0.00000000       0.77035004
2
Properties=species:S:1:pos:R:3:forces:R:3 energy=-7.454007230471299 pbc="F F F"
Ir       0.00000000       0.00000000       0.00000000       0.00000000       0.00000000       0.98082739
Ir       0.00000000       0.00000000       2.24545455       0.00000000       0.00000000      -0.98082739
2
Properties=species:S:1:pos:R:3:forces:R:3 energy=-7.354534571677972 pbc="F F F"
Ir       0.00000000       0.00000000       0.00000000       0.00000000       0.00000000       2.28629637
Ir       0.00000000       0.00000000       2.30505051       0.00000000       0.00000000      -2.28629637
2
Properties=species:S:1:pos:R:3:forces:R:3 energy=-7.1895017265789685 pbc="F F F"
Ir       0.00000000       0.00000000       0.00000000       0.00000000       0.00000000       3.18945098
Ir       0.00000000       0.00000000       2.36464646       0.00000000       0.00000000      -3.18945098
2
Properties=species:S:1:pos:R:3:forces:R:3 energy=-6.981212460704625 pbc="F F F"
Ir       0.00000000       0.00000000       0.00000000       0.00000000       0.00000000       3.74915314
Ir       0.00000000       0.00000000       2.42424242       0.00000000       0.00000000      -3.74915314
2
Properties=species:S:1:pos:R:3:forces:R:3 energy=-6.747972530789602 pbc="F F F"
Ir       0.00000000       0.00000000       0.00000000       0.00000000       0.00000000       4.04043007
Ir       0.00000000       0.00000000       2.48383838       0.00000000       0.00000000      -4.04043007
2
Properties=species:S:1:pos:R:3:forces:R:3 energy=-6.50328925814787 pbc="F F F"
Ir       0.00000000       0.00000000       0.00000000       0.00000000       0.00000000       4.14718342
Ir       0.00000000       0.00000000       2.54343434       0.00000000       0.00000000      -4.14718342
2
Properties=species:S:1:pos:R:3:forces:R:3 energy=-6.255728217938882 pbc="F F F"
Ir       0.00000000       0.00000000       0.00000000       0.00000000       0.00000000       4.14930439
Ir       0.00000000       0.00000000       2.60303030       0.00000000       0.00000000      -4.14930439
2
Properties=species:S:1:pos:R:3:forces:R:3 energy=-6.009544083678507 pbc="F F F"
Ir       0.00000000       0.00000000       0.00000000       0.00000000       0.00000000       4.10908556
Ir       0.00000000       0.00000000       2.66262626       0.00000000       0.00000000      -4.10908556
2
Properties=species:S:1:pos:R:3:forces:R:3 energy=-5.766181632261124 pbc="F F F"
Ir       0.00000000       0.00000000       0.00000000       0.00000000       0.00000000       4.05620527
Ir       0.00000000       0.00000000       2.72222222       0.00000000       0.00000000      -4.05620527
2
Properties=species:S:1:pos:R:3:forces:R:3 energy=-5.526489035171985 pbc="F F F"
Ir       0.00000000       0.00000000       0.00000000       0.00000000       0.00000000       3.98229384
Ir       0.00000000       0.00000000       2.78181818       0.00000000       0.00000000      -3.98229384
2
Properties=species:S:1:pos:R:3:forces:R:3 energy=-5.292352882348517 pbc="F F F"
Ir       0.00000000       0.00000000       0.00000000       0.00000000       0.00000000       3.86718082
Ir       0.00000000       0.00000000       2.84141414       0.00000000       0.00000000      -3.86718082
2
Properties=species:S:1:pos:R:3:forces:R:3 energy=-5.066531155242099 pbc="F F F"
Ir       0.00000000       0.00000000       0.00000000       0.00000000       0.00000000       3.70321727
Ir       0.00000000       0.00000000       2.90101010       0.00000000       0.00000000      -3.70321727
2
Properties=species:S:1:pos:R:3:forces:R:3 energy=-4.851860026085354 pbc="F F F"
Ir       0.00000000       0.00000000       0.00000000       0.00000000       0.00000000       3.49410629
Ir       0.00000000       0.00000000       2.96060606       0.00000000       0.00000000      -3.49410629
2
Properties=species:S:1:pos:R:3:forces:R:3 energy=-4.650780095752344 pbc="F F F"
Ir       0.00000000       0.00000000       0.00000000       0.00000000       0.00000000       3.24885631
Ir       0.00000000       0.00000000       3.02020202       0.00000000       0.00000000      -3.24885631
2
Properties=species:S:1:pos:R:3:forces:R:3 energy=-4.465113957524748 pbc="F F F"
Ir       0.00000000       0.00000000       0.00000000       0.00000000       0.00000000       2.97892737
Ir       0.00000000       0.00000000       3.07979798       0.00000000       0.00000000      -2.97892737
2
Properties=species:S:1:pos:R:3:forces:R:3 energy=-4.295956535625255 pbc="F F F"
Ir       0.00000000       0.00000000       0.00000000       0.00000000       0.00000000       2.69693756
Ir       0.00000000       0.00000000       3.13939394       0.00000000       0.00000000      -2.69693756
2
Properties=species:S:1:pos:R:3:forces:R:3 energy=-4.1436477609348366 pbc="F F F"
Ir       0.00000000       0.00000000       0.00000000       0.00000000       0.00000000       2.41548109
Ir       0.00000000       0.00000000       3.19898990       0.00000000       0.00000000      -2.41548109
2
Properties=species:S:1:pos:R:3:forces:R:3 energy=-4.007818271045175 pbc="F F F"
Ir       0.00000000       0.00000000       0.00000000       0.00000000       0.00000000       2.14558077
Ir       0.00000000       0.00000000       3.25858586       0.00000000       0.00000000      -2.14558077
2
Properties=species:S:1:pos:R:3:forces:R:3 energy=-3.887521898640948 pbc="F F F"
Ir       0.00000000       0.00000000       0.00000000       0.00000000       0.00000000       1.89525437
Ir       0.00000000       0.00000000       3.31818182       0.00000000       0.00000000      -1.89525437
2
Properties=species:S:1:pos:R:3:forces:R:3 energy=-3.7814421133190863 pbc="F F F"
Ir       0.00000000       0.00000000       0.00000000       0.00000000       0.00000000       1.66888416
Ir       0.00000000       0.00000000       3.37777778       0.00000000       0.00000000      -1.66888416
2
Properties=species:S:1:pos:R:3:forces:R:3 energy=-3.688103553553327 pbc="F F F"
Ir       0.00000000       0.00000000       0.00000000       0.00000000       0.00000000       1.46763361
Ir       0.00000000       0.00000000       3.43737374       0.00000000       0.00000000      -1.46763361
2
Properties=species:S:1:pos:R:3:forces:R:3 energy=-3.6060320078966983 pbc="F F F"
Ir       0.00000000       0.00000000       0.00000000       0.00000000       0.00000000       1.29050565
Ir       0.00000000       0.00000000       3.49696970       0.00000000       0.00000000      -1.29050565
2
Properties=species:S:1:pos:R:3:forces:R:3 energy=-3.533846075421845 pbc="F F F"
Ir       0.00000000       0.00000000       0.00000000       0.00000000       0.00000000       1.13545871
Ir       0.00000000       0.00000000       3.55656566       0.00000000       0.00000000      -1.13545871
2
Properties=species:S:1:pos:R:3:forces:R:3 energy=-3.4703012604868753 pbc="F F F"
Ir       0.00000000       0.00000000       0.00000000       0.00000000       0.00000000       1.00019753
Ir       0.00000000       0.00000000       3.61616162       0.00000000       0.00000000      -1.00019753
2
Properties=species:S:1:pos:R:3:forces:R:3 energy=-3.4142815037081093 pbc="F F F"
Ir       0.00000000       0.00000000       0.00000000       0.00000000       0.00000000       0.88255394
Ir       0.00000000       0.00000000       3.67575758       0.00000000       0.00000000      -0.88255394
2
Properties=species:S:1:pos:R:3:forces:R:3 energy=-3.364796635383441 pbc="F F F"
Ir       0.00000000       0.00000000       0.00000000       0.00000000       0.00000000       0.78059149
Ir       0.00000000       0.00000000       3.73535354       0.00000000       0.00000000      -0.78059149
2
Properties=species:S:1:pos:R:3:forces:R:3 energy=-3.3209641733169524 pbc="F F F"
Ir       0.00000000       0.00000000       0.00000000       0.00000000       0.00000000       0.69256651
Ir       0.00000000       0.00000000       3.79494949       0.00000000       0.00000000      -0.69256651
2
Properties=species:S:1:pos:R:3:forces:R:3 energy=-3.282003672801002 pbc="F F F"
Ir       0.00000000       0.00000000       0.00000000       0.00000000       0.00000000       0.61683351
Ir       0.00000000       0.00000000       3.85454545       0.00000000       0.00000000      -0.61683351
2
Properties=species:S:1:pos:R:3:forces:R:3 energy=-3.247230601425001 pbc="F F F"
Ir       0.00000000       0.00000000       0.00000000       0.00000000       0.00000000       0.55178750
Ir       0.00000000       0.00000000       3.91414141       0.00000000       0.00000000      -0.55178750
2
Properties=species:S:1:pos:R:3:forces:R:3 energy=-3.2160542344898846 pbc="F F F"
Ir       0.00000000       0.00000000       0.00000000       0.00000000       0.00000000       0.49584910
Ir       0.00000000       0.00000000       3.97373737       0.00000000       0.00000000      -0.49584910
2
Properties=species:S:1:pos:R:3:forces:R:3 energy=-3.187979040338162 pbc="F F F"
Ir       0.00000000       0.00000000       0.00000000       0.00000000       0.00000000       0.44749194
Ir       0.00000000       0.00000000       4.03333333       0.00000000       0.00000000      -0.44749194
2
Properties=species:S:1:pos:R:3:forces:R:3 energy=-3.162594890184979 pbc="F F F"
Ir       0.00000000       0.00000000       0.00000000       0.00000000       0.00000000       0.40528959
Ir       0.00000000       0.00000000       4.09292929       0.00000000       0.00000000      -0.40528959
2
Properties=species:S:1:pos:R:3:forces:R:3 energy=-3.139574921022454 pbc="F F F"
Ir       0.00000000       0.00000000       0.00000000       0.00000000       0.00000000       0.36795124
Ir       0.00000000       0.00000000       4.15252525       0.00000000       0.00000000      -0.36795124
2
Properties=species:S:1:pos:R:3:forces:R:3 energy=-3.1186636218582855 pbc="F F F"
Ir       0.00000000       0.00000000       0.00000000       0.00000000       0.00000000       0.33437794
Ir       0.00000000       0.00000000       4.21212121       0.00000000       0.00000000      -0.33437794
2
Properties=species:S:1:pos:R:3:forces:R:3 energy=-3.0996630022703444 pbc="F F F"
Ir       0.00000000       0.00000000       0.00000000       0.00000000       0.00000000       0.30366686
Ir       0.00000000       0.00000000       4.27171717       0.00000000       0.00000000      -0.30366686
2
Properties=species:S:1:pos:R:3:forces:R:3 energy=-3.082425662428765 pbc="F F F"
Ir       0.00000000       0.00000000       0.00000000       0.00000000       0.00000000       0.27513903
Ir       0.00000000       0.00000000       4.33131313       0.00000000       0.00000000      -0.27513903
2
Properties=species:S:1:pos:R:3:forces:R:3 energy=-3.066835100220466 pbc="F F F"
Ir       0.00000000       0.00000000       0.00000000       0.00000000       0.00000000       0.24831949
Ir       0.00000000       0.00000000       4.39090909       0.00000000       0.00000000      -0.24831949
2
Properties=species:S:1:pos:R:3:forces:R:3 energy=-3.0527991567380925 pbc="F F F"
Ir       0.00000000       0.00000000       0.00000000       0.00000000       0.00000000       0.22293730
Ir       0.00000000       0.00000000       4.45050505       0.00000000       0.00000000      -0.22293730
2
Properties=species:S:1:pos:R:3:forces:R:3 energy=-3.040236178498964 pbc="F F F"
Ir       0.00000000       0.00000000       0.00000000       0.00000000       0.00000000       0.19889802
Ir       0.00000000       0.00000000       4.51010101       0.00000000       0.00000000      -0.19889802
2
Properties=species:S:1:pos:R:3:forces:R:3 energy=-3.0290646902503573 pbc="F F F"
Ir       0.00000000       0.00000000       0.00000000       0.00000000       0.00000000       0.17623456
Ir       0.00000000       0.00000000       4.56969697       0.00000000       0.00000000      -0.17623456
2
Properties=species:S:1:pos:R:3:forces:R:3 energy=-3.019200632149045 pbc="F F F"
Ir       0.00000000       0.00000000       0.00000000       0.00000000       0.00000000       0.15505669
Ir       0.00000000       0.00000000       4.62929293       0.00000000       0.00000000      -0.15505669
2
Properties=species:S:1:pos:R:3:forces:R:3 energy=-3.010551374786159 pbc="F F F"
Ir       0.00000000       0.00000000       0.00000000       0.00000000       0.00000000       0.13549834
Ir       0.00000000       0.00000000       4.68888889       0.00000000       0.00000000      -0.13549834
2
Properties=species:S:1:pos:R:3:forces:R:3 energy=-3.0030161865208815 pbc="F F F"
Ir       0.00000000       0.00000000       0.00000000       0.00000000       0.00000000       0.11765894
Ir       0.00000000       0.00000000       4.74848485       0.00000000       0.00000000      -0.11765894
2
Properties=species:S:1:pos:R:3:forces:R:3 energy=-2.9964917527857273 pbc="F F F"
Ir       0.00000000       0.00000000       0.00000000       0.00000000       0.00000000       0.10160320
Ir       0.00000000       0.00000000       4.80808081       0.00000000       0.00000000      -0.10160320
2
Properties=species:S:1:pos:R:3:forces:R:3 energy=-2.9908698552571935 pbc="F F F"
Ir       0.00000000       0.00000000       0.00000000       0.00000000       0.00000000       0.08736581
Ir       0.00000000       0.00000000       4.86767677       0.00000000       0.00000000      -0.08736581
2
Properties=species:S:1:pos:R:3:forces:R:3 energy=-2.986041040833208 pbc="F F F"
Ir       0.00000000       0.00000000       0.00000000       0.00000000       0.00000000       0.07500345
Ir       0.00000000       0.00000000       4.92727273       0.00000000       0.00000000      -0.07500345
2
Properties=species:S:1:pos:R:3:forces:R:3 energy=-2.9818905305034193 pbc="F F F"
Ir       0.00000000       0.00000000       0.00000000       0.00000000       0.00000000       0.06462725
Ir       0.00000000       0.00000000       4.98686869       0.00000000       0.00000000      -0.06462725
2
Properties=species:S:1:pos:R:3:forces:R:3 energy=-2.978295862089893 pbc="F F F"
Ir       0.00000000       0.00000000       0.00000000       0.00000000       0.00000000       0.05640598
Ir       0.00000000       0.00000000       5.04646465       0.00000000       0.00000000      -0.05640598
2
Properties=species:S:1:pos:R:3:forces:R:3 energy=-2.9751220410960637 pbc="F F F"
Ir       0.00000000       0.00000000       0.00000000       0.00000000       0.00000000       0.05048436
Ir       0.00000000       0.00000000       5.10606061       0.00000000       0.00000000      -0.05048436
2
Properties=species:S:1:pos:R:3:forces:R:3 energy=-2.9722321166554164 pbc="F F F"
Ir       0.00000000       0.00000000       0.00000000       0.00000000       0.00000000       0.04684828
Ir       0.00000000       0.00000000       5.16565657       0.00000000       0.00000000      -0.04684828
2
Properties=species:S:1:pos:R:3:forces:R:3 energy=-2.969498851370572 pbc="F F F"
Ir       0.00000000       0.00000000       0.00000000       0.00000000       0.00000000       0.04515729
Ir       0.00000000       0.00000000       5.22525253       0.00000000       0.00000000      -0.04515729
2
Properties=species:S:1:pos:R:3:forces:R:3 energy=-2.9668254542262025 pbc="F F F"
Ir       0.00000000       0.00000000       0.00000000       0.00000000       0.00000000       0.04468957
Ir       0.00000000       0.00000000       5.28484848       0.00000000       0.00000000      -0.04468957
2
Properties=species:S:1:pos:R:3:forces:R:3 energy=-2.9641664465504776 pbc="F F F"
Ir       0.00000000       0.00000000       0.00000000       0.00000000       0.00000000       0.04451616
Ir       0.00000000       0.00000000       5.34444444       0.00000000       0.00000000      -0.04451616
2
Properties=species:S:1:pos:R:3:forces:R:3 energy=-2.9615278655875987 pbc="F F F"
Ir       0.00000000       0.00000000       0.00000000       0.00000000       0.00000000       0.04393478
Ir       0.00000000       0.00000000       5.40404040       0.00000000       0.00000000      -0.04393478
2
Properties=species:S:1:pos:R:3:forces:R:3 energy=-2.9589418534962353 pbc="F F F"
Ir       0.00000000       0.00000000       0.00000000       0.00000000       0.00000000       0.04271754
Ir       0.00000000       0.00000000       5.46363636       0.00000000       0.00000000      -0.04271754
2
Properties=species:S:1:pos:R:3:forces:R:3 energy=-2.956455702766172 pbc="F F F"
Ir       0.00000000       0.00000000       0.00000000       0.00000000       0.00000000       0.04055132
Ir       0.00000000       0.00000000       5.52323232       0.00000000       0.00000000      -0.04055132
2
Properties=species:S:1:pos:R:3:forces:R:3 energy=-2.9541395648083952 pbc="F F F"
Ir       0.00000000       0.00000000       0.00000000       0.00000000       0.00000000       0.03685593
Ir       0.00000000       0.00000000       5.58282828       0.00000000       0.00000000      -0.03685593
2
Properties=species:S:1:pos:R:3:forces:R:3 energy=-2.952107193955386 pbc="F F F"
Ir       0.00000000       0.00000000       0.00000000       0.00000000       0.00000000       0.03094887
Ir       0.00000000       0.00000000       5.64242424       0.00000000       0.00000000      -0.03094887
2
Properties=species:S:1:pos:R:3:forces:R:3 energy=-2.9504852801634347 pbc="F F F"
Ir       0.00000000       0.00000000       0.00000000       0.00000000       0.00000000       0.02345251
Ir       0.00000000       0.00000000       5.70202020       0.00000000       0.00000000      -0.02345251
2
Properties=species:S:1:pos:R:3:forces:R:3 energy=-2.9492577791035117 pbc="F F F"
Ir       0.00000000       0.00000000       0.00000000       0.00000000       0.00000000       0.01858872
Ir       0.00000000       0.00000000       5.76161616       0.00000000       0.00000000      -0.01858872
2
Properties=species:S:1:pos:R:3:forces:R:3 energy=-2.948179391559628 pbc="F F F"
Ir       0.00000000       0.00000000       0.00000000       0.00000000       0.00000000       0.01792997
Ir       0.00000000       0.00000000       5.82121212       0.00000000       0.00000000      -0.01792997
2
Properties=species:S:1:pos:R:3:forces:R:3 energy=-2.947149941578604 pbc="F F F"
Ir       0.00000000       0.00000000       0.00000000       0.00000000       0.00000000       0.01609164
Ir       0.00000000       0.00000000       5.88080808       0.00000000       0.00000000      -0.01609164
2
Properties=species:S:1:pos:R:3:forces:R:3 energy=-2.9463090278540154 pbc="F F F"
Ir       0.00000000       0.00000000       0.00000000       0.00000000       0.00000000       0.01199260
Ir       0.00000000       0.00000000       5.94040404       0.00000000       0.00000000      -0.01199260
2
Properties=species:S:1:pos:R:3:forces:R:3 energy=-2.9456820172776923 pbc="F F F"
Ir       0.00000000       0.00000000       0.00000000       0.00000000       0.00000000       0.00964539
Ir       0.00000000       0.00000000       6.00000000       0.00000000       0.00000000      -0.00964539
