2
Properties=species:S:1:pos:R:3:forces:R:3 energy=8137.32201456906 pbc="F F F"
K        0.00000000       0.00000000       0.00000000       0.00000000       0.00000000  -32440.61132812
K        0.00000000       0.00000000       0.18000000       0.00000000       0.00000000   32440.61132812
2
Properties=species:S:1:pos:R:3:forces:R:3 energy=6910.59642863156 pbc="F F F"
K        0.00000000       0.00000000       0.00000000       0.00000000       0.00000000  -13256.40917969
K        0.00000000       0.00000000       0.23878788       0.00000000       0.00000000   13256.40917969
2
Properties=species:S:1:pos:R:3:forces:R:3 energy=6321.41088175656 pbc="F F F"
K        0.00000000       0.00000000       0.00000000       0.00000000       0.00000000   -7995.12207031
K        0.00000000       0.00000000       0.29757576       0.00000000       0.00000000    7995.12207031
2
Properties=species:S:1:pos:R:3:forces:R:3 energy=5878.703362226895 pbc="F F F"
K        0.00000000       0.00000000       0.00000000       0.00000000       0.00000000   -7580.42431641
K        0.00000000       0.00000000       0.35636364       0.00000000       0.00000000    7580.42431641
2
Properties=species:S:1:pos:R:3:forces:R:3 energy=5385.743889570645 pbc="F F F"
K        0.00000000       0.00000000       0.00000000       0.00000000       0.00000000   -9464.11718750
K        0.00000000       0.00000000       0.41515152       0.00000000       0.00000000    9464.11718750
2
Properties=species:S:1:pos:R:3:forces:R:3 energy=4743.941155198812 pbc="F F F"
K        0.00000000       0.00000000       0.00000000       0.00000000       0.00000000  -12477.61914062
K        0.00000000       0.00000000       0.47393939       0.00000000       0.00000000   12477.61914062
2
Properties=species:S:1:pos:R:3:forces:R:3 energy=3917.54613567073 pbc="F F F"
K        0.00000000       0.00000000       0.00000000       0.00000000       0.00000000  -15542.43261719
K        0.00000000       0.00000000       0.53272727       0.00000000       0.00000000   15542.43261719
2
Properties=species:S:1:pos:R:3:forces:R:3 energy=2940.3483817708156 pbc="F F F"
K        0.00000000       0.00000000       0.00000000       0.00000000       0.00000000  -17391.55859375
K        0.00000000       0.00000000       0.59151515       0.00000000       0.00000000   17391.55859375
2
Properties=species:S:1:pos:R:3:forces:R:3 energy=1920.1201102959442 pbc="F F F"
K        0.00000000       0.00000000       0.00000000       0.00000000       0.00000000  -16845.70703125
K        0.00000000       0.00000000       0.65030303       0.00000000       0.00000000   16845.70703125
2
Properties=species:S:1:pos:R:3:forces:R:3 energy=1012.8535087492834 pbc="F F F"
K        0.00000000       0.00000000       0.00000000       0.00000000       0.00000000  -13570.87207031
K        0.00000000       0.00000000       0.70909091       0.00000000       0.00000000   13570.87207031
2
Properties=species:S:1:pos:R:3:forces:R:3 energy=338.9857109198956 pbc="F F F"
K        0.00000000       0.00000000       0.00000000       0.00000000       0.00000000   -7890.22070312
K        0.00000000       0.00000000       0.76787879       0.00000000       0.00000000    7890.22070312
2
Properties=species:S:1:pos:R:3:forces:R:3 energy=199.13871083267134 pbc="F F F"
K        0.00000000       0.00000000       0.00000000       0.00000000       0.00000000   -1730.97973633
K        0.00000000       0.00000000       0.82666667       0.00000000       0.00000000    1730.97973633
2
Properties=species:S:1:pos:R:3:forces:R:3 energy=113.36533441851275 pbc="F F F"
K        0.00000000       0.00000000       0.00000000       0.00000000       0.00000000   -1182.86511230
K        0.00000000       0.00000000       0.88545455       0.00000000       0.00000000    1182.86511230
2
Properties=species:S:1:pos:R:3:forces:R:3 energy=60.56273362760913 pbc="F F F"
K        0.00000000       0.00000000       0.00000000       0.00000000       0.00000000    -614.31317139
K        0.00000000       0.00000000       0.94424242       0.00000000       0.00000000     614.31317139
2
Properties=species:S:1:pos:R:3:forces:R:3 energy=37.89648540427841 pbc="F F F"
K        0.00000000       0.00000000       0.00000000       0.00000000       0.00000000    -205.62065125
K        0.00000000       0.00000000       1.00303030       0.00000000       0.00000000     205.62065125
2
Properties=species:S:1:pos:R:3:forces:R:3 energy=32.136761870829034 pbc="F F F"
K        0.00000000       0.00000000       0.00000000       0.00000000       0.00000000      41.64995193
K        0.00000000       0.00000000       1.06181818       0.00000000       0.00000000     -41.64995193
2
Properties=species:S:1:pos:R:3:forces:R:3 energy=42.73984660926824 pbc="F F F"
K        0.00000000       0.00000000       0.00000000       0.00000000       0.00000000     276.68194580
K        0.00000000       0.00000000       1.12060606       0.00000000       0.00000000    -276.68194580
2
Properties=species:S:1:pos:R:3:forces:R:3 energy=55.02038348579494 pbc="F F F"
K        0.00000000       0.00000000       0.00000000       0.00000000       0.00000000     -22.01860619
K        0.00000000       0.00000000       1.17939394       0.00000000       0.00000000      22.01860619
2
Properties=species:S:1:pos:R:3:forces:R:3 energy=48.732221548957085 pbc="F F F"
K        0.00000000       0.00000000       0.00000000       0.00000000       0.00000000    -133.39724731
K        0.00000000       0.00000000       1.23818182       0.00000000       0.00000000     133.39724731
2
Properties=species:S:1:pos:R:3:forces:R:3 energy=40.96297677663893 pbc="F F F"
K        0.00000000       0.00000000       0.00000000       0.00000000       0.00000000    -125.87871552
K        0.00000000       0.00000000       1.29696970       0.00000000       0.00000000     125.87871552
2
Properties=species:S:1:pos:R:3:forces:R:3 energy=33.971701462874826 pbc="F F F"
K        0.00000000       0.00000000       0.00000000       0.00000000       0.00000000    -112.93807220
K        0.00000000       0.00000000       1.35575758       0.00000000       0.00000000     112.93807220
2
Properties=species:S:1:pos:R:3:forces:R:3 energy=27.67034860383555 pbc="F F F"
K        0.00000000       0.00000000       0.00000000       0.00000000       0.00000000    -100.90491486
K        0.00000000       0.00000000       1.41454545       0.00000000       0.00000000     100.90491486
2
Properties=species:S:1:pos:R:3:forces:R:3 energy=22.17980216176233 pbc="F F F"
K        0.00000000       0.00000000       0.00000000       0.00000000       0.00000000     -85.39517975
K        0.00000000       0.00000000       1.47333333       0.00000000       0.00000000      85.39517975
2
Properties=species:S:1:pos:R:3:forces:R:3 energy=17.66358488550248 pbc="F F F"
K        0.00000000       0.00000000       0.00000000       0.00000000       0.00000000     -68.18361664
K        0.00000000       0.00000000       1.53212121       0.00000000       0.00000000      68.18361664
2
Properties=species:S:1:pos:R:3:forces:R:3 energy=14.141358710115574 pbc="F F F"
K        0.00000000       0.00000000       0.00000000       0.00000000       0.00000000     -52.08221436
K        0.00000000       0.00000000       1.59090909       0.00000000       0.00000000      52.08221436
2
Properties=species:S:1:pos:R:3:forces:R:3 energy=11.467163819489498 pbc="F F F"
K        0.00000000       0.00000000       0.00000000       0.00000000       0.00000000     -39.61348724
K        0.00000000       0.00000000       1.64969697       0.00000000       0.00000000      39.61348724
2
Properties=species:S:1:pos:R:3:forces:R:3 energy=9.40179489122552 pbc="F F F"
K        0.00000000       0.00000000       0.00000000       0.00000000       0.00000000     -31.27361298
K        0.00000000       0.00000000       1.70848485       0.00000000       0.00000000      31.27361298
2
Properties=species:S:1:pos:R:3:forces:R:3 energy=7.730532200502109 pbc="F F F"
K        0.00000000       0.00000000       0.00000000       0.00000000       0.00000000     -25.96957779
K        0.00000000       0.00000000       1.76727273       0.00000000       0.00000000      25.96957779
2
Properties=species:S:1:pos:R:3:forces:R:3 energy=6.316415768402364 pbc="F F F"
K        0.00000000       0.00000000       0.00000000       0.00000000       0.00000000     -22.31067276
K        0.00000000       0.00000000       1.82606061       0.00000000       0.00000000      22.31067276
2
Properties=species:S:1:pos:R:3:forces:R:3 energy=5.095625769861002 pbc="F F F"
K        0.00000000       0.00000000       0.00000000       0.00000000       0.00000000     -19.27306747
K        0.00000000       0.00000000       1.88484848       0.00000000       0.00000000      19.27306747
2
Properties=species:S:1:pos:R:3:forces:R:3 energy=4.046320268533633 pbc="F F F"
K        0.00000000       0.00000000       0.00000000       0.00000000       0.00000000     -16.45594788
K        0.00000000       0.00000000       1.94363636       0.00000000       0.00000000      16.45594788
2
Properties=species:S:1:pos:R:3:forces:R:3 energy=3.1564720736388128 pbc="F F F"
K        0.00000000       0.00000000       0.00000000       0.00000000       0.00000000     -13.86010933
K        0.00000000       0.00000000       2.00242424       0.00000000       0.00000000      13.86010933
2
Properties=species:S:1:pos:R:3:forces:R:3 energy=2.4112451946181617 pbc="F F F"
K        0.00000000       0.00000000       0.00000000       0.00000000       0.00000000     -11.54128933
K        0.00000000       0.00000000       2.06121212       0.00000000       0.00000000      11.54128933
2
Properties=species:S:1:pos:R:3:forces:R:3 energy=1.7937770893265845 pbc="F F F"
K        0.00000000       0.00000000       0.00000000       0.00000000       0.00000000      -9.51441669
K        0.00000000       0.00000000       2.12000000       0.00000000       0.00000000       9.51441669
2
Properties=species:S:1:pos:R:3:forces:R:3 energy=1.2867423417867703 pbc="F F F"
K        0.00000000       0.00000000       0.00000000       0.00000000       0.00000000      -7.78575897
K        0.00000000       0.00000000       2.17878788       0.00000000       0.00000000       7.78575897
2
Properties=species:S:1:pos:R:3:forces:R:3 energy=0.872298528500448 pbc="F F F"
K        0.00000000       0.00000000       0.00000000       0.00000000       0.00000000      -6.36599350
K        0.00000000       0.00000000       2.23757576       0.00000000       0.00000000       6.36599350
2
Properties=species:S:1:pos:R:3:forces:R:3 energy=0.5322533625436265 pbc="F F F"
K        0.00000000       0.00000000       0.00000000       0.00000000       0.00000000      -5.25111771
K        0.00000000       0.00000000       2.29636364       0.00000000       0.00000000       5.25111771
2
Properties=species:S:1:pos:R:3:forces:R:3 energy=0.24969428455475287 pbc="F F F"
K        0.00000000       0.00000000       0.00000000       0.00000000       0.00000000      -4.40033531
K        0.00000000       0.00000000       2.35515152       0.00000000       0.00000000       4.40033531
2
Properties=species:S:1:pos:R:3:forces:R:3 energy=0.011068507906206084 pbc="F F F"
K        0.00000000       0.00000000       0.00000000       0.00000000       0.00000000      -3.74443340
K        0.00000000       0.00000000       2.41393939       0.00000000       0.00000000       3.74443340
2
Properties=species:S:1:pos:R:3:forces:R:3 energy=-0.1931098663441428 pbc="F F F"
K        0.00000000       0.00000000       0.00000000       0.00000000       0.00000000      -3.21963382
K        0.00000000       0.00000000       2.47272727       0.00000000       0.00000000       3.21963382
2
Properties=species:S:1:pos:R:3:forces:R:3 energy=-0.3692676226120382 pbc="F F F"
K        0.00000000       0.00000000       0.00000000       0.00000000       0.00000000      -2.78652692
K        0.00000000       0.00000000       2.53151515       0.00000000       0.00000000       2.78652692
2
Properties=species:S:1:pos:R:3:forces:R:3 energy=-0.5221040502362116 pbc="F F F"
K        0.00000000       0.00000000       0.00000000       0.00000000       0.00000000      -2.42336035
K        0.00000000       0.00000000       2.59030303       0.00000000       0.00000000       2.42336035
2
Properties=species:S:1:pos:R:3:forces:R:3 energy=-0.6552671869757459 pbc="F F F"
K        0.00000000       0.00000000       0.00000000       0.00000000       0.00000000      -2.11490774
K        0.00000000       0.00000000       2.64909091       0.00000000       0.00000000       2.11490774
2
Properties=species:S:1:pos:R:3:forces:R:3 energy=-0.7715982241041783 pbc="F F F"
K        0.00000000       0.00000000       0.00000000       0.00000000       0.00000000      -1.84900093
K        0.00000000       0.00000000       2.70787879       0.00000000       0.00000000       1.84900093
2
Properties=species:S:1:pos:R:3:forces:R:3 energy=-0.8733242399042809 pbc="F F F"
K        0.00000000       0.00000000       0.00000000       0.00000000       0.00000000      -1.61684501
K        0.00000000       0.00000000       2.76666667       0.00000000       0.00000000       1.61684501
2
Properties=species:S:1:pos:R:3:forces:R:3 energy=-0.9622479149167366 pbc="F F F"
K        0.00000000       0.00000000       0.00000000       0.00000000       0.00000000      -1.41271245
K        0.00000000       0.00000000       2.82545455       0.00000000       0.00000000       1.41271245
2
Properties=species:S:1:pos:R:3:forces:R:3 energy=-1.0399023673842434 pbc="F F F"
K        0.00000000       0.00000000       0.00000000       0.00000000       0.00000000      -1.23300683
K        0.00000000       0.00000000       2.88424242       0.00000000       0.00000000       1.23300683
2
Properties=species:S:1:pos:R:3:forces:R:3 energy=-1.1076542841261514 pbc="F F F"
K        0.00000000       0.00000000       0.00000000       0.00000000       0.00000000      -1.07550812
K        0.00000000       0.00000000       2.94303030       0.00000000       0.00000000       1.07550812
2
Properties=species:S:1:pos:R:3:forces:R:3 energy=-1.166762633697414 pbc="F F F"
K        0.00000000       0.00000000       0.00000000       0.00000000       0.00000000      -0.93875015
K        0.00000000       0.00000000       3.00181818       0.00000000       0.00000000       0.93875015
2
Properties=species:S:1:pos:R:3:forces:R:3 energy=-1.2184075556343688 pbc="F F F"
K        0.00000000       0.00000000       0.00000000       0.00000000       0.00000000      -0.82133609
K        0.00000000       0.00000000       3.06060606       0.00000000       0.00000000       0.82133609
2
Properties=species:S:1:pos:R:3:forces:R:3 energy=-1.26367344023922 pbc="F F F"
K        0.00000000       0.00000000       0.00000000       0.00000000       0.00000000      -0.72134513
K        0.00000000       0.00000000       3.11939394       0.00000000       0.00000000       0.72134513
2
Properties=species:S:1:pos:R:3:forces:R:3 energy=-1.3035094976476427 pbc="F F F"
K        0.00000000       0.00000000       0.00000000       0.00000000       0.00000000      -0.63609082
K        0.00000000       0.00000000       3.17818182       0.00000000       0.00000000       0.63609082
2
Properties=species:S:1:pos:R:3:forces:R:3 energy=-1.3386887018998872 pbc="F F F"
K        0.00000000       0.00000000       0.00000000       0.00000000       0.00000000      -0.56238210
K        0.00000000       0.00000000       3.23696970       0.00000000       0.00000000       0.56238210
2
Properties=species:S:1:pos:R:3:forces:R:3 energy=-1.3697960145636903 pbc="F F F"
K        0.00000000       0.00000000       0.00000000       0.00000000       0.00000000      -0.49707863
K        0.00000000       0.00000000       3.29575758       0.00000000       0.00000000       0.49707863
2
Properties=species:S:1:pos:R:3:forces:R:3 energy=-1.3972474883149137 pbc="F F F"
K        0.00000000       0.00000000       0.00000000       0.00000000       0.00000000      -0.43764445
K        0.00000000       0.00000000       3.35454545       0.00000000       0.00000000       0.43764445
2
Properties=species:S:1:pos:R:3:forces:R:3 energy=-1.4213346729818783 pbc="F F F"
K        0.00000000       0.00000000       0.00000000       0.00000000       0.00000000      -0.38241240
K        0.00000000       0.00000000       3.41333333       0.00000000       0.00000000       0.38241240
2
Properties=species:S:1:pos:R:3:forces:R:3 energy=-1.442274845421863 pbc="F F F"
K        0.00000000       0.00000000       0.00000000       0.00000000       0.00000000      -0.33050543
K        0.00000000       0.00000000       3.47212121       0.00000000       0.00000000       0.33050543
2
Properties=species:S:1:pos:R:3:forces:R:3 energy=-1.4602508060009236 pbc="F F F"
K        0.00000000       0.00000000       0.00000000       0.00000000       0.00000000      -0.28150547
K        0.00000000       0.00000000       3.53090909       0.00000000       0.00000000       0.28150547
2
Properties=species:S:1:pos:R:3:forces:R:3 energy=-1.4754231519830248 pbc="F F F"
K        0.00000000       0.00000000       0.00000000       0.00000000       0.00000000      -0.23506697
K        0.00000000       0.00000000       3.58969697       0.00000000       0.00000000       0.23506697
2
Properties=species:S:1:pos:R:3:forces:R:3 energy=-1.4879293408627847 pbc="F F F"
K        0.00000000       0.00000000       0.00000000       0.00000000       0.00000000      -0.19068244
K        0.00000000       0.00000000       3.64848485       0.00000000       0.00000000       0.19068244
2
Properties=species:S:1:pos:R:3:forces:R:3 energy=-1.497869902437659 pbc="F F F"
K        0.00000000       0.00000000       0.00000000       0.00000000       0.00000000      -0.14766675
K        0.00000000       0.00000000       3.70727273       0.00000000       0.00000000       0.14766675
2
Properties=species:S:1:pos:R:3:forces:R:3 energy=-1.505304597936179 pbc="F F F"
K        0.00000000       0.00000000       0.00000000       0.00000000       0.00000000      -0.10533821
K        0.00000000       0.00000000       3.76606061       0.00000000       0.00000000       0.10533821
2
Properties=species:S:1:pos:R:3:forces:R:3 energy=-1.510259835840597 pbc="F F F"
K        0.00000000       0.00000000       0.00000000       0.00000000       0.00000000      -0.06326816
K        0.00000000       0.00000000       3.82484848       0.00000000       0.00000000       0.06326816
2
Properties=species:S:1:pos:R:3:forces:R:3 energy=-1.5127482692318213 pbc="F F F"
K        0.00000000       0.00000000       0.00000000       0.00000000       0.00000000      -0.02144844
K        0.00000000       0.00000000       3.88363636       0.00000000       0.00000000       0.02144844
2
Properties=species:S:1:pos:R:3:forces:R:3 energy=-1.5127948283561914 pbc="F F F"
K        0.00000000       0.00000000       0.00000000       0.00000000       0.00000000       0.01968202
K        0.00000000       0.00000000       3.94242424       0.00000000       0.00000000      -0.01968202
2
Properties=species:S:1:pos:R:3:forces:R:3 energy=-1.510461818028986 pbc="F F F"
K        0.00000000       0.00000000       0.00000000       0.00000000       0.00000000       0.05936863
K        0.00000000       0.00000000       4.00121212       0.00000000       0.00000000      -0.05936863
2
Properties=species:S:1:pos:R:3:forces:R:3 energy=-1.505860373501999 pbc="F F F"
K        0.00000000       0.00000000       0.00000000       0.00000000       0.00000000       0.09672751
K        0.00000000       0.00000000       4.06000000       0.00000000       0.00000000      -0.09672751
2
Properties=species:S:1:pos:R:3:forces:R:3 energy=-1.4991517764702031 pbc="F F F"
K        0.00000000       0.00000000       0.00000000       0.00000000       0.00000000       0.13091025
K        0.00000000       0.00000000       4.11878788       0.00000000       0.00000000      -0.13091025
2
Properties=species:S:1:pos:R:3:forces:R:3 energy=-1.4905451574742605 pbc="F F F"
K        0.00000000       0.00000000       0.00000000       0.00000000       0.00000000       0.16117302
K        0.00000000       0.00000000       4.17757576       0.00000000       0.00000000      -0.16117302
2
Properties=species:S:1:pos:R:3:forces:R:3 energy=-1.4802919652698372 pbc="F F F"
K        0.00000000       0.00000000       0.00000000       0.00000000       0.00000000       0.18682709
K        0.00000000       0.00000000       4.23636364       0.00000000       0.00000000      -0.18682709
2
Properties=species:S:1:pos:R:3:forces:R:3 energy=-1.4686841359098186 pbc="F F F"
K        0.00000000       0.00000000       0.00000000       0.00000000       0.00000000       0.20706540
K        0.00000000       0.00000000       4.29515152       0.00000000       0.00000000      -0.20706540
2
Properties=species:S:1:pos:R:3:forces:R:3 energy=-1.4560753310736145 pbc="F F F"
K        0.00000000       0.00000000       0.00000000       0.00000000       0.00000000       0.22068809
K        0.00000000       0.00000000       4.35393939       0.00000000       0.00000000      -0.22068809
2
Properties=species:S:1:pos:R:3:forces:R:3 energy=-1.4429026272207213 pbc="F F F"
K        0.00000000       0.00000000       0.00000000       0.00000000       0.00000000       0.22584955
K        0.00000000       0.00000000       4.41272727       0.00000000       0.00000000      -0.22584955
2
Properties=species:S:1:pos:R:3:forces:R:3 energy=-1.4297320548251162 pbc="F F F"
K        0.00000000       0.00000000       0.00000000       0.00000000       0.00000000       0.22025639
K        0.00000000       0.00000000       4.47151515       0.00000000       0.00000000      -0.22025639
2
Properties=species:S:1:pos:R:3:forces:R:3 energy=-1.4172433713099262 pbc="F F F"
K        0.00000000       0.00000000       0.00000000       0.00000000       0.00000000       0.20268516
K        0.00000000       0.00000000       4.53030303       0.00000000       0.00000000      -0.20268516
2
Properties=species:S:1:pos:R:3:forces:R:3 energy=-1.4060766267462796 pbc="F F F"
K        0.00000000       0.00000000       0.00000000       0.00000000       0.00000000       0.17646228
K        0.00000000       0.00000000       4.58909091       0.00000000       0.00000000      -0.17646228
2
Properties=species:S:1:pos:R:3:forces:R:3 energy=-1.3964485950800734 pbc="F F F"
K        0.00000000       0.00000000       0.00000000       0.00000000       0.00000000       0.15290070
K        0.00000000       0.00000000       4.64787879       0.00000000       0.00000000      -0.15290070
2
Properties=species:S:1:pos:R:3:forces:R:3 energy=-1.3877136597244242 pbc="F F F"
K        0.00000000       0.00000000       0.00000000       0.00000000       0.00000000       0.14880502
K        0.00000000       0.00000000       4.70666667       0.00000000       0.00000000      -0.14880502
2
Properties=species:S:1:pos:R:3:forces:R:3 energy=-1.3783311954506174 pbc="F F F"
K        0.00000000       0.00000000       0.00000000       0.00000000       0.00000000       0.17590812
K        0.00000000       0.00000000       4.76545455       0.00000000       0.00000000      -0.17590812
2
Properties=species:S:1:pos:R:3:forces:R:3 energy=-1.366453857729497 pbc="F F F"
K        0.00000000       0.00000000       0.00000000       0.00000000       0.00000000       0.23204449
K        0.00000000       0.00000000       4.82424242       0.00000000       0.00000000      -0.23204449
2
Properties=species:S:1:pos:R:3:forces:R:3 energy=-1.3507326148492549 pbc="F F F"
K        0.00000000       0.00000000       0.00000000       0.00000000       0.00000000       0.30438480
K        0.00000000       0.00000000       4.88303030       0.00000000       0.00000000      -0.30438480
2
Properties=species:S:1:pos:R:3:forces:R:3 energy=-1.3306045287359292 pbc="F F F"
K        0.00000000       0.00000000       0.00000000       0.00000000       0.00000000       0.38015500
K        0.00000000       0.00000000       4.94181818       0.00000000       0.00000000      -0.38015500
2
Properties=species:S:1:pos:R:3:forces:R:3 energy=-1.3060818981480424 pbc="F F F"
K        0.00000000       0.00000000       0.00000000       0.00000000       0.00000000       0.45373574
K        0.00000000       0.00000000       5.00060606       0.00000000       0.00000000      -0.45373574
2
Properties=species:S:1:pos:R:3:forces:R:3 energy=-1.2772659371534978 pbc="F F F"
K        0.00000000       0.00000000       0.00000000       0.00000000       0.00000000       0.52681661
K        0.00000000       0.00000000       5.05939394       0.00000000       0.00000000      -0.52681661
2
Properties=species:S:1:pos:R:3:forces:R:3 energy=-1.2440608358229839 pbc="F F F"
K        0.00000000       0.00000000       0.00000000       0.00000000       0.00000000       0.60390085
K        0.00000000       0.00000000       5.11818182       0.00000000       0.00000000      -0.60390085
2
Properties=species:S:1:pos:R:3:forces:R:3 energy=-1.206161488561897 pbc="F F F"
K        0.00000000       0.00000000       0.00000000       0.00000000       0.00000000       0.68583238
K        0.00000000       0.00000000       5.17696970       0.00000000       0.00000000      -0.68583238
2
Properties=species:S:1:pos:R:3:forces:R:3 energy=-1.1635222264848517 pbc="F F F"
K        0.00000000       0.00000000       0.00000000       0.00000000       0.00000000       0.76219988
K        0.00000000       0.00000000       5.23575758       0.00000000       0.00000000      -0.76219988
2
Properties=species:S:1:pos:R:3:forces:R:3 energy=-1.117155526311015 pbc="F F F"
K        0.00000000       0.00000000       0.00000000       0.00000000       0.00000000       0.80731642
K        0.00000000       0.00000000       5.29454545       0.00000000       0.00000000      -0.80731642
2
Properties=species:S:1:pos:R:3:forces:R:3 energy=-1.0697109678243386 pbc="F F F"
K        0.00000000       0.00000000       0.00000000       0.00000000       0.00000000       0.79778123
K        0.00000000       0.00000000       5.35333333       0.00000000       0.00000000      -0.79778123
2
Properties=species:S:1:pos:R:3:forces:R:3 energy=-1.0237418050695324 pbc="F F F"
K        0.00000000       0.00000000       0.00000000       0.00000000       0.00000000       0.77232867
K        0.00000000       0.00000000       5.41212121       0.00000000       0.00000000      -0.77232867
2
Properties=species:S:1:pos:R:3:forces:R:3 energy=-0.9770237439708384 pbc="F F F"
K        0.00000000       0.00000000       0.00000000       0.00000000       0.00000000       0.83708274
K        0.00000000       0.00000000       5.47090909       0.00000000       0.00000000      -0.83708274
2
Properties=species:S:1:pos:R:3:forces:R:3 energy=-0.9242186655368164 pbc="F F F"
K        0.00000000       0.00000000       0.00000000       0.00000000       0.00000000       0.95018959
K        0.00000000       0.00000000       5.52969697       0.00000000       0.00000000      -0.95018959
2
Properties=species:S:1:pos:R:3:forces:R:3 energy=-0.8680832624567217 pbc="F F F"
K        0.00000000       0.00000000       0.00000000       0.00000000       0.00000000       0.93214726
K        0.00000000       0.00000000       5.58848485       0.00000000       0.00000000      -0.93214726
2
Properties=species:S:1:pos:R:3:forces:R:3 energy=-0.8165917512998286 pbc="F F F"
K        0.00000000       0.00000000       0.00000000       0.00000000       0.00000000       0.82147491
K        0.00000000       0.00000000       5.64727273       0.00000000       0.00000000      -0.82147491
2
Properties=species:S:1:pos:R:3:forces:R:3 energy=-0.7687827784926156 pbc="F F F"
K        0.00000000       0.00000000       0.00000000       0.00000000       0.00000000       0.84816325
K        0.00000000       0.00000000       5.70606061       0.00000000       0.00000000      -0.84816325
2
Properties=species:S:1:pos:R:3:forces:R:3 energy=-0.7115202780308646 pbc="F F F"
K        0.00000000       0.00000000       0.00000000       0.00000000       0.00000000       1.11672306
K        0.00000000       0.00000000       5.76484848       0.00000000       0.00000000      -1.11672306
2
Properties=species:S:1:pos:R:3:forces:R:3 energy=-0.6410953937751128 pbc="F F F"
K        0.00000000       0.00000000       0.00000000       0.00000000       0.00000000       1.20341206
K        0.00000000       0.00000000       5.82363636       0.00000000       0.00000000      -1.20341206
2
Properties=species:S:1:pos:R:3:forces:R:3 energy=-0.5803950216828255 pbc="F F F"
K        0.00000000       0.00000000       0.00000000       0.00000000       0.00000000       0.80537587
K        0.00000000       0.00000000       5.88242424       0.00000000       0.00000000      -0.80537587
2
Properties=species:S:1:pos:R:3:forces:R:3 energy=-0.5488423562031746 pbc="F F F"
K        0.00000000       0.00000000       0.00000000       0.00000000       0.00000000       0.28503865
K        0.00000000       0.00000000       5.94121212       0.00000000       0.00000000      -0.28503865
2
Properties=species:S:1:pos:R:3:forces:R:3 energy=-0.5406347146628909 pbc="F F F"
K        0.00000000       0.00000000       0.00000000       0.00000000       0.00000000       0.06572454
K        0.00000000       0.00000000       6.00000000       0.00000000       0.00000000      -0.06572454
