2
Properties=species:S:1:pos:R:3:forces:R:3 energy=900520.7922658749 pbc="F F F"
La       0.00000000       0.00000000       0.00000000       0.00000000       0.00000000 -243632.54687500
La       0.00000000       0.00000000       0.18000000       0.00000000       0.00000000  243632.54687500
2
Properties=species:S:1:pos:R:3:forces:R:3 energy=887297.2297658749 pbc="F F F"
La       0.00000000       0.00000000       0.00000000       0.00000000       0.00000000 -244456.71875000
La       0.00000000       0.00000000       0.23878788       0.00000000       0.00000000  244456.71875000
2
Properties=species:S:1:pos:R:3:forces:R:3 energy=868392.0422658749 pbc="F F F"
La       0.00000000       0.00000000       0.00000000       0.00000000       0.00000000 -423095.84375000
La       0.00000000       0.00000000       0.29757576       0.00000000       0.00000000  423095.84375000
2
Properties=species:S:1:pos:R:3:forces:R:3 energy=834722.9172658749 pbc="F F F"
La       0.00000000       0.00000000       0.00000000       0.00000000       0.00000000 -745787.37500000
La       0.00000000       0.00000000       0.35636364       0.00000000       0.00000000  745787.37500000
2
Properties=species:S:1:pos:R:3:forces:R:3 energy=778150.6672658749 pbc="F F F"
La       0.00000000       0.00000000       0.00000000       0.00000000       0.00000000 -1198210.62500000
La       0.00000000       0.00000000       0.41515152       0.00000000       0.00000000 1198210.62500000
2
Properties=species:S:1:pos:R:3:forces:R:3 energy=692251.7922658812 pbc="F F F"
La       0.00000000       0.00000000       0.00000000       0.00000000       0.00000000 -1730540.87500000
La       0.00000000       0.00000000       0.47393939       0.00000000       0.00000000 1730540.87500000
2
Properties=species:S:1:pos:R:3:forces:R:3 energy=575241.6672658876 pbc="F F F"
La       0.00000000       0.00000000       0.00000000       0.00000000       0.00000000 -2232283.50000000
La       0.00000000       0.00000000       0.53272727       0.00000000       0.00000000 2232283.50000000
2
Properties=species:S:1:pos:R:3:forces:R:3 energy=433628.04226590024 pbc="F F F"
La       0.00000000       0.00000000       0.00000000       0.00000000       0.00000000 -2537167.25000000
La       0.00000000       0.00000000       0.59151515       0.00000000       0.00000000 2537167.25000000
2
Properties=species:S:1:pos:R:3:forces:R:3 energy=292430.1360159256 pbc="F F F"
La       0.00000000       0.00000000       0.00000000       0.00000000       0.00000000 -2342808.50000000
La       0.00000000       0.00000000       0.65030303       0.00000000       0.00000000 2342808.50000000
2
Properties=species:S:1:pos:R:3:forces:R:3 energy=164485.54226595728 pbc="F F F"
La       0.00000000       0.00000000       0.00000000       0.00000000       0.00000000 -1949443.12500000
La       0.00000000       0.00000000       0.70909091       0.00000000       0.00000000 1949443.12500000
2
Properties=species:S:1:pos:R:3:forces:R:3 energy=69599.96414101431 pbc="F F F"
La       0.00000000       0.00000000       0.00000000       0.00000000       0.00000000 -1252586.37500000
La       0.00000000       0.00000000       0.76787879       0.00000000       0.00000000 1252586.37500000
2
Properties=species:S:1:pos:R:3:forces:R:3 energy=17211.60671921533 pbc="F F F"
La       0.00000000       0.00000000       0.00000000       0.00000000       0.00000000 -555262.12500000
La       0.00000000       0.00000000       0.82666667       0.00000000       0.00000000  555262.12500000
2
Properties=species:S:1:pos:R:3:forces:R:3 energy=-870.9615179753137 pbc="F F F"
La       0.00000000       0.00000000       0.00000000       0.00000000       0.00000000 -114429.03906250
La       0.00000000       0.00000000       0.88545455       0.00000000       0.00000000  114429.03906250
2
Properties=species:S:1:pos:R:3:forces:R:3 energy=-2280.429413331071 pbc="F F F"
La       0.00000000       0.00000000       0.00000000       0.00000000       0.00000000   22253.50195312
La       0.00000000       0.00000000       0.94424242       0.00000000       0.00000000  -22253.50195312
2
Properties=species:S:1:pos:R:3:forces:R:3 energy=-376.62728908588565 pbc="F F F"
La       0.00000000       0.00000000       0.00000000       0.00000000       0.00000000   19782.09375000
La       0.00000000       0.00000000       1.00303030       0.00000000       0.00000000  -19782.09375000
2
Properties=species:S:1:pos:R:3:forces:R:3 energy=86.41152957126462 pbc="F F F"
La       0.00000000       0.00000000       0.00000000       0.00000000       0.00000000    1174.82226562
La       0.00000000       0.00000000       1.06181818       0.00000000       0.00000000   -1174.82226562
2
Properties=species:S:1:pos:R:3:forces:R:3 energy=95.49546093331286 pbc="F F F"
La       0.00000000       0.00000000       0.00000000       0.00000000       0.00000000     -45.00663376
La       0.00000000       0.00000000       1.12060606       0.00000000       0.00000000      45.00663376
2
Properties=species:S:1:pos:R:3:forces:R:3 energy=92.42965028293784 pbc="F F F"
La       0.00000000       0.00000000       0.00000000       0.00000000       0.00000000     -49.08914185
La       0.00000000       0.00000000       1.17939394       0.00000000       0.00000000      49.08914185
2
Properties=species:S:1:pos:R:3:forces:R:3 energy=86.83897558784093 pbc="F F F"
La       0.00000000       0.00000000       0.00000000       0.00000000       0.00000000    -128.13133240
La       0.00000000       0.00000000       1.23818182       0.00000000       0.00000000     128.13133240
2
Properties=species:S:1:pos:R:3:forces:R:3 energy=78.35744719464178 pbc="F F F"
La       0.00000000       0.00000000       0.00000000       0.00000000       0.00000000    -155.97912598
La       0.00000000       0.00000000       1.29696970       0.00000000       0.00000000     155.97912598
2
Properties=species:S:1:pos:R:3:forces:R:3 energy=68.90324751440112 pbc="F F F"
La       0.00000000       0.00000000       0.00000000       0.00000000       0.00000000    -164.68885803
La       0.00000000       0.00000000       1.35575758       0.00000000       0.00000000     164.68885803
2
Properties=species:S:1:pos:R:3:forces:R:3 energy=59.03457361928847 pbc="F F F"
La       0.00000000       0.00000000       0.00000000       0.00000000       0.00000000    -170.13923645
La       0.00000000       0.00000000       1.41454545       0.00000000       0.00000000     170.13923645
2
Properties=species:S:1:pos:R:3:forces:R:3 energy=49.10333519744017 pbc="F F F"
La       0.00000000       0.00000000       0.00000000       0.00000000       0.00000000    -165.64411926
La       0.00000000       0.00000000       1.47333333       0.00000000       0.00000000     165.64411926
2
Properties=species:S:1:pos:R:3:forces:R:3 energy=39.76152891209019 pbc="F F F"
La       0.00000000       0.00000000       0.00000000       0.00000000       0.00000000    -150.99884033
La       0.00000000       0.00000000       1.53212121       0.00000000       0.00000000     150.99884033
2
Properties=species:S:1:pos:R:3:forces:R:3 energy=31.427602346444395 pbc="F F F"
La       0.00000000       0.00000000       0.00000000       0.00000000       0.00000000    -132.24609375
La       0.00000000       0.00000000       1.59090909       0.00000000       0.00000000     132.24609375
2
Properties=species:S:1:pos:R:3:forces:R:3 energy=24.21980546971899 pbc="F F F"
La       0.00000000       0.00000000       0.00000000       0.00000000       0.00000000    -113.04256439
La       0.00000000       0.00000000       1.64969697       0.00000000       0.00000000     113.04256439
2
Properties=species:S:1:pos:R:3:forces:R:3 energy=18.121714178864558 pbc="F F F"
La       0.00000000       0.00000000       0.00000000       0.00000000       0.00000000     -94.56294250
La       0.00000000       0.00000000       1.70848485       0.00000000       0.00000000      94.56294250
2
Properties=species:S:1:pos:R:3:forces:R:3 energy=13.081838770576894 pbc="F F F"
La       0.00000000       0.00000000       0.00000000       0.00000000       0.00000000     -77.11480713
La       0.00000000       0.00000000       1.76727273       0.00000000       0.00000000      77.11480713
2
Properties=species:S:1:pos:R:3:forces:R:3 energy=9.018637318479337 pbc="F F F"
La       0.00000000       0.00000000       0.00000000       0.00000000       0.00000000     -61.52085495
La       0.00000000       0.00000000       1.82606061       0.00000000       0.00000000      61.52085495
2
Properties=species:S:1:pos:R:3:forces:R:3 energy=5.794287829778912 pbc="F F F"
La       0.00000000       0.00000000       0.00000000       0.00000000       0.00000000     -48.65253830
La       0.00000000       0.00000000       1.88484848       0.00000000       0.00000000      48.65253830
2
Properties=species:S:1:pos:R:3:forces:R:3 energy=3.245420066659279 pbc="F F F"
La       0.00000000       0.00000000       0.00000000       0.00000000       0.00000000     -38.46562958
La       0.00000000       0.00000000       1.94363636       0.00000000       0.00000000      38.46562958
2
Properties=species:S:1:pos:R:3:forces:R:3 energy=1.2300864475703361 pbc="F F F"
La       0.00000000       0.00000000       0.00000000       0.00000000       0.00000000     -30.40315819
La       0.00000000       0.00000000       2.00242424       0.00000000       0.00000000      30.40315819
2
Properties=species:S:1:pos:R:3:forces:R:3 energy=-0.3603296130680452 pbc="F F F"
La       0.00000000       0.00000000       0.00000000       0.00000000       0.00000000     -23.93209648
La       0.00000000       0.00000000       2.06121212       0.00000000       0.00000000      23.93209648
2
Properties=species:S:1:pos:R:3:forces:R:3 energy=-1.6072685781040335 pbc="F F F"
La       0.00000000       0.00000000       0.00000000       0.00000000       0.00000000     -18.66557884
La       0.00000000       0.00000000       2.12000000       0.00000000       0.00000000      18.66557884
2
Properties=species:S:1:pos:R:3:forces:R:3 energy=-2.5732964833963377 pbc="F F F"
La       0.00000000       0.00000000       0.00000000       0.00000000       0.00000000     -14.33684158
La       0.00000000       0.00000000       2.17878788       0.00000000       0.00000000      14.33684158
2
Properties=species:S:1:pos:R:3:forces:R:3 energy=-3.307209664494408 pbc="F F F"
La       0.00000000       0.00000000       0.00000000       0.00000000       0.00000000     -10.73754311
La       0.00000000       0.00000000       2.23757576       0.00000000       0.00000000      10.73754311
2
Properties=species:S:1:pos:R:3:forces:R:3 energy=-3.8468047534555803 pbc="F F F"
La       0.00000000       0.00000000       0.00000000       0.00000000       0.00000000      -7.70431757
La       0.00000000       0.00000000       2.29636364       0.00000000       0.00000000       7.70431757
2
Properties=species:S:1:pos:R:3:forces:R:3 energy=-4.222347864160087 pbc="F F F"
La       0.00000000       0.00000000       0.00000000       0.00000000       0.00000000      -5.14817953
La       0.00000000       0.00000000       2.35515152       0.00000000       0.00000000       5.14817953
2
Properties=species:S:1:pos:R:3:forces:R:3 energy=-4.4610856889033945 pbc="F F F"
La       0.00000000       0.00000000       0.00000000       0.00000000       0.00000000      -3.05108714
La       0.00000000       0.00000000       2.41393939       0.00000000       0.00000000       3.05108714
2
Properties=species:S:1:pos:R:3:forces:R:3 energy=-4.590292388802725 pbc="F F F"
La       0.00000000       0.00000000       0.00000000       0.00000000       0.00000000      -1.42330706
La       0.00000000       0.00000000       2.47272727       0.00000000       0.00000000       1.42330706
2
Properties=species:S:1:pos:R:3:forces:R:3 energy=-4.637483706352369 pbc="F F F"
La       0.00000000       0.00000000       0.00000000       0.00000000       0.00000000      -0.25565293
La       0.00000000       0.00000000       2.53151515       0.00000000       0.00000000       0.25565293
2
Properties=species:S:1:pos:R:3:forces:R:3 energy=-4.628246341659015 pbc="F F F"
La       0.00000000       0.00000000       0.00000000       0.00000000       0.00000000       0.51079029
La       0.00000000       0.00000000       2.59030303       0.00000000       0.00000000      -0.51079029
2
Properties=species:S:1:pos:R:3:forces:R:3 energy=-4.5832514579634696 pbc="F F F"
La       0.00000000       0.00000000       0.00000000       0.00000000       0.00000000       0.98032856
La       0.00000000       0.00000000       2.64909091       0.00000000       0.00000000      -0.98032856
2
Properties=species:S:1:pos:R:3:forces:R:3 energy=-4.516555506441539 pbc="F F F"
La       0.00000000       0.00000000       0.00000000       0.00000000       0.00000000       1.26648593
La       0.00000000       0.00000000       2.70787879       0.00000000       0.00000000      -1.26648593
2
Properties=species:S:1:pos:R:3:forces:R:3 energy=-4.436244597931502 pbc="F F F"
La       0.00000000       0.00000000       0.00000000       0.00000000       0.00000000       1.45418763
La       0.00000000       0.00000000       2.76666667       0.00000000       0.00000000      -1.45418763
2
Properties=species:S:1:pos:R:3:forces:R:3 energy=-4.346616801209692 pbc="F F F"
La       0.00000000       0.00000000       0.00000000       0.00000000       0.00000000       1.58784008
La       0.00000000       0.00000000       2.82545455       0.00000000       0.00000000      -1.58784008
2
Properties=species:S:1:pos:R:3:forces:R:3 energy=-4.250297365617871 pbc="F F F"
La       0.00000000       0.00000000       0.00000000       0.00000000       0.00000000       1.68305194
La       0.00000000       0.00000000       2.88424242       0.00000000       0.00000000      -1.68305194
2
Properties=species:S:1:pos:R:3:forces:R:3 energy=-4.149405596946311 pbc="F F F"
La       0.00000000       0.00000000       0.00000000       0.00000000       0.00000000       1.74387562
La       0.00000000       0.00000000       2.94303030       0.00000000       0.00000000      -1.74387562
2
Properties=species:S:1:pos:R:3:forces:R:3 energy=-4.0458670747388 pbc="F F F"
La       0.00000000       0.00000000       0.00000000       0.00000000       0.00000000       1.77389228
La       0.00000000       0.00000000       3.00181818       0.00000000       0.00000000      -1.77389228
2
Properties=species:S:1:pos:R:3:forces:R:3 energy=-3.9413177199968863 pbc="F F F"
La       0.00000000       0.00000000       0.00000000       0.00000000       0.00000000       1.77950358
La       0.00000000       0.00000000       3.06060606       0.00000000       0.00000000      -1.77950358
2
Properties=species:S:1:pos:R:3:forces:R:3 energy=-3.8369648325065233 pbc="F F F"
La       0.00000000       0.00000000       0.00000000       0.00000000       0.00000000       1.76852047
La       0.00000000       0.00000000       3.11939394       0.00000000       0.00000000      -1.76852047
2
Properties=species:S:1:pos:R:3:forces:R:3 energy=-3.733575175252993 pbc="F F F"
La       0.00000000       0.00000000       0.00000000       0.00000000       0.00000000       1.74758148
La       0.00000000       0.00000000       3.17818182       0.00000000       0.00000000      -1.74758148
2
Properties=species:S:1:pos:R:3:forces:R:3 energy=-3.6316088749798054 pbc="F F F"
La       0.00000000       0.00000000       0.00000000       0.00000000       0.00000000       1.72059834
La       0.00000000       0.00000000       3.23696970       0.00000000       0.00000000      -1.72059834
2
Properties=species:S:1:pos:R:3:forces:R:3 energy=-3.531367855945537 pbc="F F F"
La       0.00000000       0.00000000       0.00000000       0.00000000       0.00000000       1.68881261
La       0.00000000       0.00000000       3.29575758       0.00000000       0.00000000      -1.68881261
2
Properties=species:S:1:pos:R:3:forces:R:3 energy=-3.433144134968565 pbc="F F F"
La       0.00000000       0.00000000       0.00000000       0.00000000       0.00000000       1.65197682
La       0.00000000       0.00000000       3.35454545       0.00000000       0.00000000      -1.65197682
2
Properties=species:S:1:pos:R:3:forces:R:3 energy=-3.3372424832239718 pbc="F F F"
La       0.00000000       0.00000000       0.00000000       0.00000000       0.00000000       1.60974145
La       0.00000000       0.00000000       3.41333333       0.00000000       0.00000000      -1.60974145
2
Properties=species:S:1:pos:R:3:forces:R:3 energy=-3.2439755725332806 pbc="F F F"
La       0.00000000       0.00000000       0.00000000       0.00000000       0.00000000       1.56246781
La       0.00000000       0.00000000       3.47212121       0.00000000       0.00000000      -1.56246781
2
Properties=species:S:1:pos:R:3:forces:R:3 energy=-3.153613178544055 pbc="F F F"
La       0.00000000       0.00000000       0.00000000       0.00000000       0.00000000       1.51124322
La       0.00000000       0.00000000       3.53090909       0.00000000       0.00000000      -1.51124322
2
Properties=species:S:1:pos:R:3:forces:R:3 energy=-3.06633968849702 pbc="F F F"
La       0.00000000       0.00000000       0.00000000       0.00000000       0.00000000       1.45752859
La       0.00000000       0.00000000       3.58969697       0.00000000       0.00000000      -1.45752859
2
Properties=species:S:1:pos:R:3:forces:R:3 energy=-2.9822574325871822 pbc="F F F"
La       0.00000000       0.00000000       0.00000000       0.00000000       0.00000000       1.40299618
La       0.00000000       0.00000000       3.64848485       0.00000000       0.00000000      -1.40299618
2
Properties=species:S:1:pos:R:3:forces:R:3 energy=-2.901355481744099 pbc="F F F"
La       0.00000000       0.00000000       0.00000000       0.00000000       0.00000000       1.34986448
La       0.00000000       0.00000000       3.70727273       0.00000000       0.00000000      -1.34986448
2
Properties=species:S:1:pos:R:3:forces:R:3 energy=-2.823454162773088 pbc="F F F"
La       0.00000000       0.00000000       0.00000000       0.00000000       0.00000000       1.30143929
La       0.00000000       0.00000000       3.76606061       0.00000000       0.00000000      -1.30143929
2
Properties=species:S:1:pos:R:3:forces:R:3 energy=-2.7481651269874727 pbc="F F F"
La       0.00000000       0.00000000       0.00000000       0.00000000       0.00000000       1.26173961
La       0.00000000       0.00000000       3.82484848       0.00000000       0.00000000      -1.26173961
2
Properties=species:S:1:pos:R:3:forces:R:3 energy=-2.6748878145666994 pbc="F F F"
La       0.00000000       0.00000000       0.00000000       0.00000000       0.00000000       1.23292673
La       0.00000000       0.00000000       3.88363636       0.00000000       0.00000000      -1.23292673
2
Properties=species:S:1:pos:R:3:forces:R:3 energy=-2.6030421855819834 pbc="F F F"
La       0.00000000       0.00000000       0.00000000       0.00000000       0.00000000       1.21211910
La       0.00000000       0.00000000       3.94242424       0.00000000       0.00000000      -1.21211910
2
Properties=species:S:1:pos:R:3:forces:R:3 energy=-2.532359770765366 pbc="F F F"
La       0.00000000       0.00000000       0.00000000       0.00000000       0.00000000       1.19203293
La       0.00000000       0.00000000       4.00121212       0.00000000       0.00000000      -1.19203293
2
Properties=species:S:1:pos:R:3:forces:R:3 energy=-2.4630049246757344 pbc="F F F"
La       0.00000000       0.00000000       0.00000000       0.00000000       0.00000000       1.16618955
La       0.00000000       0.00000000       4.06000000       0.00000000       0.00000000      -1.16618955
2
Properties=species:S:1:pos:R:3:forces:R:3 energy=-2.3953942254768816 pbc="F F F"
La       0.00000000       0.00000000       0.00000000       0.00000000       0.00000000       1.13284099
La       0.00000000       0.00000000       4.11878788       0.00000000       0.00000000      -1.13284099
2
Properties=species:S:1:pos:R:3:forces:R:3 energy=-2.3299137024356096 pbc="F F F"
La       0.00000000       0.00000000       0.00000000       0.00000000       0.00000000       1.09420848
La       0.00000000       0.00000000       4.17757576       0.00000000       0.00000000      -1.09420848
2
Properties=species:S:1:pos:R:3:forces:R:3 energy=-2.2667750194844825 pbc="F F F"
La       0.00000000       0.00000000       0.00000000       0.00000000       0.00000000       1.05377924
La       0.00000000       0.00000000       4.23636364       0.00000000       0.00000000      -1.05377924
2
Properties=species:S:1:pos:R:3:forces:R:3 energy=-2.205991825286111 pbc="F F F"
La       0.00000000       0.00000000       0.00000000       0.00000000       0.00000000       1.01445055
La       0.00000000       0.00000000       4.29515152       0.00000000       0.00000000      -1.01445055
2
Properties=species:S:1:pos:R:3:forces:R:3 energy=-2.1474434949299606 pbc="F F F"
La       0.00000000       0.00000000       0.00000000       0.00000000       0.00000000       0.97804296
La       0.00000000       0.00000000       4.35393939       0.00000000       0.00000000      -0.97804296
2
Properties=species:S:1:pos:R:3:forces:R:3 energy=-2.090925024024946 pbc="F F F"
La       0.00000000       0.00000000       0.00000000       0.00000000       0.00000000       0.94538569
La       0.00000000       0.00000000       4.41272727       0.00000000       0.00000000      -0.94538569
2
Properties=species:S:1:pos:R:3:forces:R:3 energy=-2.036212199498246 pbc="F F F"
La       0.00000000       0.00000000       0.00000000       0.00000000       0.00000000       0.91658390
La       0.00000000       0.00000000       4.47151515       0.00000000       0.00000000      -0.91658390
2
Properties=species:S:1:pos:R:3:forces:R:3 energy=-1.9830883990964814 pbc="F F F"
La       0.00000000       0.00000000       0.00000000       0.00000000       0.00000000       0.89120919
La       0.00000000       0.00000000       4.53030303       0.00000000       0.00000000      -0.89120919
2
Properties=species:S:1:pos:R:3:forces:R:3 energy=-1.9313774206584284 pbc="F F F"
La       0.00000000       0.00000000       0.00000000       0.00000000       0.00000000       0.86841059
La       0.00000000       0.00000000       4.58909091       0.00000000       0.00000000      -0.86841059
2
Properties=species:S:1:pos:R:3:forces:R:3 energy=-1.8809573360875498 pbc="F F F"
La       0.00000000       0.00000000       0.00000000       0.00000000       0.00000000       0.84707093
La       0.00000000       0.00000000       4.64787879       0.00000000       0.00000000      -0.84707093
2
Properties=species:S:1:pos:R:3:forces:R:3 energy=-1.8317775274491321 pbc="F F F"
La       0.00000000       0.00000000       0.00000000       0.00000000       0.00000000       0.82595128
La       0.00000000       0.00000000       4.70666667       0.00000000       0.00000000      -0.82595128
2
Properties=species:S:1:pos:R:3:forces:R:3 energy=-1.7838615808394096 pbc="F F F"
La       0.00000000       0.00000000       0.00000000       0.00000000       0.00000000       0.80403000
La       0.00000000       0.00000000       4.76545455       0.00000000       0.00000000      -0.80403000
2
Properties=species:S:1:pos:R:3:forces:R:3 energy=-1.737265750371762 pbc="F F F"
La       0.00000000       0.00000000       0.00000000       0.00000000       0.00000000       0.78090054
La       0.00000000       0.00000000       4.82424242       0.00000000       0.00000000      -0.78090054
2
Properties=species:S:1:pos:R:3:forces:R:3 energy=-1.692059990060434 pbc="F F F"
La       0.00000000       0.00000000       0.00000000       0.00000000       0.00000000       0.75723797
La       0.00000000       0.00000000       4.88303030       0.00000000       0.00000000      -0.75723797
2
Properties=species:S:1:pos:R:3:forces:R:3 energy=-1.648204516353006 pbc="F F F"
La       0.00000000       0.00000000       0.00000000       0.00000000       0.00000000       0.73515624
La       0.00000000       0.00000000       4.94181818       0.00000000       0.00000000      -0.73515624
2
Properties=species:S:1:pos:R:3:forces:R:3 energy=-1.6055215060115655 pbc="F F F"
La       0.00000000       0.00000000       0.00000000       0.00000000       0.00000000       0.71817225
La       0.00000000       0.00000000       5.00060606       0.00000000       0.00000000      -0.71817225
2
Properties=species:S:1:pos:R:3:forces:R:3 energy=-1.5635817926027418 pbc="F F F"
La       0.00000000       0.00000000       0.00000000       0.00000000       0.00000000       0.71039641
La       0.00000000       0.00000000       5.05939394       0.00000000       0.00000000      -0.71039641
2
Properties=species:S:1:pos:R:3:forces:R:3 energy=-1.52175678872689 pbc="F F F"
La       0.00000000       0.00000000       0.00000000       0.00000000       0.00000000       0.71469134
La       0.00000000       0.00000000       5.11818182       0.00000000       0.00000000      -0.71469134
2
Properties=species:S:1:pos:R:3:forces:R:3 energy=-1.479336705955364 pbc="F F F"
La       0.00000000       0.00000000       0.00000000       0.00000000       0.00000000       0.72979134
La       0.00000000       0.00000000       5.17696970       0.00000000       0.00000000      -0.72979134
2
Properties=species:S:1:pos:R:3:forces:R:3 energy=-1.435910864142406 pbc="F F F"
La       0.00000000       0.00000000       0.00000000       0.00000000       0.00000000       0.74668282
La       0.00000000       0.00000000       5.23575758       0.00000000       0.00000000      -0.74668282
2
Properties=species:S:1:pos:R:3:forces:R:3 energy=-1.3918622009005195 pbc="F F F"
La       0.00000000       0.00000000       0.00000000       0.00000000       0.00000000       0.74741614
La       0.00000000       0.00000000       5.29454545       0.00000000       0.00000000      -0.74741614
2
Properties=species:S:1:pos:R:3:forces:R:3 energy=-1.3486676433321758 pbc="F F F"
La       0.00000000       0.00000000       0.00000000       0.00000000       0.00000000       0.71689361
La       0.00000000       0.00000000       5.35333333       0.00000000       0.00000000      -0.71689361
2
Properties=species:S:1:pos:R:3:forces:R:3 energy=-1.3077984696898908 pbc="F F F"
La       0.00000000       0.00000000       0.00000000       0.00000000       0.00000000       0.67689937
La       0.00000000       0.00000000       5.41212121       0.00000000       0.00000000      -0.67689937
2
Properties=species:S:1:pos:R:3:forces:R:3 energy=-1.268079283419075 pbc="F F F"
La       0.00000000       0.00000000       0.00000000       0.00000000       0.00000000       0.68469703
La       0.00000000       0.00000000       5.47090909       0.00000000       0.00000000      -0.68469703
2
Properties=species:S:1:pos:R:3:forces:R:3 energy=-1.2267672718771352 pbc="F F F"
La       0.00000000       0.00000000       0.00000000       0.00000000       0.00000000       0.71540606
La       0.00000000       0.00000000       5.52969697       0.00000000       0.00000000      -0.71540606
2
Properties=species:S:1:pos:R:3:forces:R:3 energy=-1.1854448205503727 pbc="F F F"
La       0.00000000       0.00000000       0.00000000       0.00000000       0.00000000       0.67628509
La       0.00000000       0.00000000       5.58848485       0.00000000       0.00000000      -0.67628509
2
Properties=species:S:1:pos:R:3:forces:R:3 energy=-1.148259343544258 pbc="F F F"
La       0.00000000       0.00000000       0.00000000       0.00000000       0.00000000       0.59019518
La       0.00000000       0.00000000       5.64727273       0.00000000       0.00000000      -0.59019518
2
Properties=species:S:1:pos:R:3:forces:R:3 energy=-1.1146315951302368 pbc="F F F"
La       0.00000000       0.00000000       0.00000000       0.00000000       0.00000000       0.57618010
La       0.00000000       0.00000000       5.70606061       0.00000000       0.00000000      -0.57618010
2
Properties=species:S:1:pos:R:3:forces:R:3 energy=-1.0777282981395133 pbc="F F F"
La       0.00000000       0.00000000       0.00000000       0.00000000       0.00000000       0.68761146
La       0.00000000       0.00000000       5.76484848       0.00000000       0.00000000      -0.68761146
2
Properties=species:S:1:pos:R:3:forces:R:3 energy=-1.0356201855660536 pbc="F F F"
La       0.00000000       0.00000000       0.00000000       0.00000000       0.00000000       0.70543963
La       0.00000000       0.00000000       5.82363636       0.00000000       0.00000000      -0.70543963
2
Properties=species:S:1:pos:R:3:forces:R:3 energy=-1.0002723582873756 pbc="F F F"
La       0.00000000       0.00000000       0.00000000       0.00000000       0.00000000       0.46721375
La       0.00000000       0.00000000       5.88242424       0.00000000       0.00000000      -0.46721375
2
Properties=species:S:1:pos:R:3:forces:R:3 energy=-0.9819755694402557 pbc="F F F"
La       0.00000000       0.00000000       0.00000000       0.00000000       0.00000000       0.16571610
La       0.00000000       0.00000000       5.94121212       0.00000000       0.00000000      -0.16571610
2
Properties=species:S:1:pos:R:3:forces:R:3 energy=-0.9771897102310176 pbc="F F F"
La       0.00000000       0.00000000       0.00000000       0.00000000       0.00000000       0.03887901
La       0.00000000       0.00000000       6.00000000       0.00000000       0.00000000      -0.03887901
