2
Properties=species:S:1:pos:R:3:forces:R:3 energy=113.52052317438165 pbc="F F F"
Li       0.00000000       0.00000000       0.00000000       0.00000000       0.00000000   -1432.32531738
Li       0.00000000       0.00000000       0.18000000       0.00000000       0.00000000    1432.32531738
2
Properties=species:S:1:pos:R:3:forces:R:3 energy=57.04982386407891 pbc="F F F"
Li       0.00000000       0.00000000       0.00000000       0.00000000       0.00000000    -625.04907227
Li       0.00000000       0.00000000       0.23878788       0.00000000       0.00000000     625.04907227
2
Properties=species:S:1:pos:R:3:forces:R:3 energy=30.856554134464655 pbc="F F F"
Li       0.00000000       0.00000000       0.00000000       0.00000000       0.00000000    -310.00405884
Li       0.00000000       0.00000000       0.29757576       0.00000000       0.00000000     310.00405884
2
Properties=species:S:1:pos:R:3:forces:R:3 energy=17.35456286407591 pbc="F F F"
Li       0.00000000       0.00000000       0.00000000       0.00000000       0.00000000    -166.38914490
Li       0.00000000       0.00000000       0.35636364       0.00000000       0.00000000     166.38914490
2
Properties=species:S:1:pos:R:3:forces:R:3 energy=9.964284052604498 pbc="F F F"
Li       0.00000000       0.00000000       0.00000000       0.00000000       0.00000000     -92.36780548
Li       0.00000000       0.00000000       0.41515152       0.00000000       0.00000000      92.36780548
2
Properties=species:S:1:pos:R:3:forces:R:3 energy=5.909600375221319 pbc="F F F"
Li       0.00000000       0.00000000       0.00000000       0.00000000       0.00000000     -48.83245468
Li       0.00000000       0.00000000       0.47393939       0.00000000       0.00000000      48.83245468
2
Properties=species:S:1:pos:R:3:forces:R:3 energy=3.9670533065755182 pbc="F F F"
Li       0.00000000       0.00000000       0.00000000       0.00000000       0.00000000     -18.62996292
Li       0.00000000       0.00000000       0.53272727       0.00000000       0.00000000      18.62996292
2
Properties=species:S:1:pos:R:3:forces:R:3 energy=3.61482087571082 pbc="F F F"
Li       0.00000000       0.00000000       0.00000000       0.00000000       0.00000000       6.10134268
Li       0.00000000       0.00000000       0.59151515       0.00000000       0.00000000      -6.10134268
2
Properties=species:S:1:pos:R:3:forces:R:3 energy=4.640505515168362 pbc="F F F"
Li       0.00000000       0.00000000       0.00000000       0.00000000       0.00000000      28.44247627
Li       0.00000000       0.00000000       0.65030303       0.00000000       0.00000000     -28.44247627
2
Properties=species:S:1:pos:R:3:forces:R:3 energy=6.792539390707617 pbc="F F F"
Li       0.00000000       0.00000000       0.00000000       0.00000000       0.00000000      40.09603500
Li       0.00000000       0.00000000       0.70909091       0.00000000       0.00000000     -40.09603500
2
Properties=species:S:1:pos:R:3:forces:R:3 energy=8.307213205115133 pbc="F F F"
Li       0.00000000       0.00000000       0.00000000       0.00000000       0.00000000      10.04254818
Li       0.00000000       0.00000000       0.76787879       0.00000000       0.00000000     -10.04254818
2
Properties=species:S:1:pos:R:3:forces:R:3 energy=8.271505884999625 pbc="F F F"
Li       0.00000000       0.00000000       0.00000000       0.00000000       0.00000000      -9.10340595
Li       0.00000000       0.00000000       0.82666667       0.00000000       0.00000000       9.10340595
2
Properties=species:S:1:pos:R:3:forces:R:3 energy=7.4939754365811595 pbc="F F F"
Li       0.00000000       0.00000000       0.00000000       0.00000000       0.00000000     -15.66956425
Li       0.00000000       0.00000000       0.88545455       0.00000000       0.00000000      15.66956425
2
Properties=species:S:1:pos:R:3:forces:R:3 energy=6.539686785940645 pbc="F F F"
Li       0.00000000       0.00000000       0.00000000       0.00000000       0.00000000     -16.48301697
Li       0.00000000       0.00000000       0.94424242       0.00000000       0.00000000      16.48301697
2
Properties=species:S:1:pos:R:3:forces:R:3 energy=5.572895583805375 pbc="F F F"
Li       0.00000000       0.00000000       0.00000000       0.00000000       0.00000000     -16.23116684
Li       0.00000000       0.00000000       1.00303030       0.00000000       0.00000000      16.23116684
2
Properties=species:S:1:pos:R:3:forces:R:3 energy=4.659358179639118 pbc="F F F"
Li       0.00000000       0.00000000       0.00000000       0.00000000       0.00000000     -14.62437057
Li       0.00000000       0.00000000       1.06181818       0.00000000       0.00000000      14.62437057
2
Properties=species:S:1:pos:R:3:forces:R:3 energy=3.864341462234036 pbc="F F F"
Li       0.00000000       0.00000000       0.00000000       0.00000000       0.00000000     -12.47215462
Li       0.00000000       0.00000000       1.12060606       0.00000000       0.00000000      12.47215462
2
Properties=species:S:1:pos:R:3:forces:R:3 energy=3.1846866713529445 pbc="F F F"
Li       0.00000000       0.00000000       0.00000000       0.00000000       0.00000000     -10.65397358
Li       0.00000000       0.00000000       1.17939394       0.00000000       0.00000000      10.65397358
2
Properties=species:S:1:pos:R:3:forces:R:3 energy=2.6144310169372225 pbc="F F F"
Li       0.00000000       0.00000000       0.00000000       0.00000000       0.00000000      -8.76942253
Li       0.00000000       0.00000000       1.23818182       0.00000000       0.00000000       8.76942253
2
Properties=species:S:1:pos:R:3:forces:R:3 energy=2.144124841960623 pbc="F F F"
Li       0.00000000       0.00000000       0.00000000       0.00000000       0.00000000      -7.33368301
Li       0.00000000       0.00000000       1.29696970       0.00000000       0.00000000       7.33368301
2
Properties=species:S:1:pos:R:3:forces:R:3 energy=1.7416696954795883 pbc="F F F"
Li       0.00000000       0.00000000       0.00000000       0.00000000       0.00000000      -6.42648077
Li       0.00000000       0.00000000       1.35575758       0.00000000       0.00000000       6.42648077
2
Properties=species:S:1:pos:R:3:forces:R:3 energy=1.38308671918391 pbc="F F F"
Li       0.00000000       0.00000000       0.00000000       0.00000000       0.00000000      -5.79884815
Li       0.00000000       0.00000000       1.41454545       0.00000000       0.00000000       5.79884815
2
Properties=species:S:1:pos:R:3:forces:R:3 energy=1.058352900546289 pbc="F F F"
Li       0.00000000       0.00000000       0.00000000       0.00000000       0.00000000      -5.25443363
Li       0.00000000       0.00000000       1.47333333       0.00000000       0.00000000       5.25443363
2
Properties=species:S:1:pos:R:3:forces:R:3 energy=0.7646715280293496 pbc="F F F"
Li       0.00000000       0.00000000       0.00000000       0.00000000       0.00000000      -4.74401140
Li       0.00000000       0.00000000       1.53212121       0.00000000       0.00000000       4.74401140
2
Properties=species:S:1:pos:R:3:forces:R:3 energy=0.49933323782679945 pbc="F F F"
Li       0.00000000       0.00000000       0.00000000       0.00000000       0.00000000      -4.29614115
Li       0.00000000       0.00000000       1.59090909       0.00000000       0.00000000       4.29614115
2
Properties=species:S:1:pos:R:3:forces:R:3 energy=0.25814666416420673 pbc="F F F"
Li       0.00000000       0.00000000       0.00000000       0.00000000       0.00000000      -3.91688681
Li       0.00000000       0.00000000       1.64969697       0.00000000       0.00000000       3.91688681
2
Properties=species:S:1:pos:R:3:forces:R:3 energy=0.038552498220489576 pbc="F F F"
Li       0.00000000       0.00000000       0.00000000       0.00000000       0.00000000      -3.55194807
Li       0.00000000       0.00000000       1.70848485       0.00000000       0.00000000       3.55194807
2
Properties=species:S:1:pos:R:3:forces:R:3 energy=-0.15923678482483347 pbc="F F F"
Li       0.00000000       0.00000000       0.00000000       0.00000000       0.00000000      -3.17670894
Li       0.00000000       0.00000000       1.76727273       0.00000000       0.00000000       3.17670894
2
Properties=species:S:1:pos:R:3:forces:R:3 energy=-0.3352407503823664 pbc="F F F"
Li       0.00000000       0.00000000       0.00000000       0.00000000       0.00000000      -2.81595874
Li       0.00000000       0.00000000       1.82606061       0.00000000       0.00000000       2.81595874
2
Properties=species:S:1:pos:R:3:forces:R:3 energy=-0.49105422996889286 pbc="F F F"
Li       0.00000000       0.00000000       0.00000000       0.00000000       0.00000000      -2.49162889
Li       0.00000000       0.00000000       1.88484848       0.00000000       0.00000000       2.49162889
2
Properties=species:S:1:pos:R:3:forces:R:3 energy=-0.6289473034505683 pbc="F F F"
Li       0.00000000       0.00000000       0.00000000       0.00000000       0.00000000      -2.20527387
Li       0.00000000       0.00000000       1.94363636       0.00000000       0.00000000       2.20527387
2
Properties=species:S:1:pos:R:3:forces:R:3 energy=-0.7509137787052689 pbc="F F F"
Li       0.00000000       0.00000000       0.00000000       0.00000000       0.00000000      -1.94820309
Li       0.00000000       0.00000000       2.00242424       0.00000000       0.00000000       1.94820309
2
Properties=species:S:1:pos:R:3:forces:R:3 energy=-0.8584226402538786 pbc="F F F"
Li       0.00000000       0.00000000       0.00000000       0.00000000       0.00000000      -1.71242011
Li       0.00000000       0.00000000       2.06121212       0.00000000       0.00000000       1.71242011
2
Properties=species:S:1:pos:R:3:forces:R:3 energy=-0.9525909429118902 pbc="F F F"
Li       0.00000000       0.00000000       0.00000000       0.00000000       0.00000000      -1.49398386
Li       0.00000000       0.00000000       2.12000000       0.00000000       0.00000000       1.49398386
2
Properties=species:S:1:pos:R:3:forces:R:3 energy=-1.0343902920743617 pbc="F F F"
Li       0.00000000       0.00000000       0.00000000       0.00000000       0.00000000      -1.29146159
Li       0.00000000       0.00000000       2.17878788       0.00000000       0.00000000       1.29146159
2
Properties=species:S:1:pos:R:3:forces:R:3 energy=-1.104730664853534 pbc="F F F"
Li       0.00000000       0.00000000       0.00000000       0.00000000       0.00000000      -1.10400927
Li       0.00000000       0.00000000       2.23757576       0.00000000       0.00000000       1.10400927
2
Properties=species:S:1:pos:R:3:forces:R:3 energy=-1.1644729288061606 pbc="F F F"
Li       0.00000000       0.00000000       0.00000000       0.00000000       0.00000000      -0.93075317
Li       0.00000000       0.00000000       2.29636364       0.00000000       0.00000000       0.93075317
2
Properties=species:S:1:pos:R:3:forces:R:3 energy=-1.2144294498193278 pbc="F F F"
Li       0.00000000       0.00000000       0.00000000       0.00000000       0.00000000      -0.77102238
Li       0.00000000       0.00000000       2.35515152       0.00000000       0.00000000       0.77102238
2
Properties=species:S:1:pos:R:3:forces:R:3 energy=-1.2553868962668346 pbc="F F F"
Li       0.00000000       0.00000000       0.00000000       0.00000000       0.00000000      -0.62458891
Li       0.00000000       0.00000000       2.41393939       0.00000000       0.00000000       0.62458891
2
Properties=species:S:1:pos:R:3:forces:R:3 energy=-1.2881286593632117 pbc="F F F"
Li       0.00000000       0.00000000       0.00000000       0.00000000       0.00000000      -0.49156490
Li       0.00000000       0.00000000       2.47272727       0.00000000       0.00000000       0.49156490
2
Properties=species:S:1:pos:R:3:forces:R:3 energy=-1.313448226619057 pbc="F F F"
Li       0.00000000       0.00000000       0.00000000       0.00000000       0.00000000      -0.37204808
Li       0.00000000       0.00000000       2.53151515       0.00000000       0.00000000       0.37204808
2
Properties=species:S:1:pos:R:3:forces:R:3 energy=-1.3321334641500535 pbc="F F F"
Li       0.00000000       0.00000000       0.00000000       0.00000000       0.00000000      -0.26578867
Li       0.00000000       0.00000000       2.59030303       0.00000000       0.00000000       0.26578867
2
Properties=species:S:1:pos:R:3:forces:R:3 energy=-1.3449436939197765 pbc="F F F"
Li       0.00000000       0.00000000       0.00000000       0.00000000       0.00000000      -0.17206866
Li       0.00000000       0.00000000       2.64909091       0.00000000       0.00000000       0.17206866
2
Properties=species:S:1:pos:R:3:forces:R:3 energy=-1.3525933781149884 pbc="F F F"
Li       0.00000000       0.00000000       0.00000000       0.00000000       0.00000000      -0.09004070
Li       0.00000000       0.00000000       2.70787879       0.00000000       0.00000000       0.09004070
2
Properties=species:S:1:pos:R:3:forces:R:3 energy=-1.355745307626777 pbc="F F F"
Li       0.00000000       0.00000000       0.00000000       0.00000000       0.00000000      -0.01899159
Li       0.00000000       0.00000000       2.76666667       0.00000000       0.00000000       0.01899159
2
Properties=species:S:1:pos:R:3:forces:R:3 energy=-1.355038328717271 pbc="F F F"
Li       0.00000000       0.00000000       0.00000000       0.00000000       0.00000000       0.04118914
Li       0.00000000       0.00000000       2.82545455       0.00000000       0.00000000      -0.04118914
2
Properties=species:S:1:pos:R:3:forces:R:3 energy=-1.3511371069135711 pbc="F F F"
Li       0.00000000       0.00000000       0.00000000       0.00000000       0.00000000       0.08930875
Li       0.00000000       0.00000000       2.88424242       0.00000000       0.00000000      -0.08930875
2
Properties=species:S:1:pos:R:3:forces:R:3 energy=-1.3448438299985914 pbc="F F F"
Li       0.00000000       0.00000000       0.00000000       0.00000000       0.00000000       0.12165198
Li       0.00000000       0.00000000       2.94303030       0.00000000       0.00000000      -0.12165198
2
Properties=species:S:1:pos:R:3:forces:R:3 energy=-1.3372962076612374 pbc="F F F"
Li       0.00000000       0.00000000       0.00000000       0.00000000       0.00000000       0.13022502
Li       0.00000000       0.00000000       3.00181818       0.00000000       0.00000000      -0.13022502
2
Properties=species:S:1:pos:R:3:forces:R:3 energy=-1.3302396506137615 pbc="F F F"
Li       0.00000000       0.00000000       0.00000000       0.00000000       0.00000000       0.10285892
Li       0.00000000       0.00000000       3.06060606       0.00000000       0.00000000      -0.10285892
2
Properties=species:S:1:pos:R:3:forces:R:3 energy=-1.326021790401216 pbc="F F F"
Li       0.00000000       0.00000000       0.00000000       0.00000000       0.00000000       0.03501296
Li       0.00000000       0.00000000       3.11939394       0.00000000       0.00000000      -0.03501296
2
Properties=species:S:1:pos:R:3:forces:R:3 energy=-1.3263015079434635 pbc="F F F"
Li       0.00000000       0.00000000       0.00000000       0.00000000       0.00000000      -0.04022712
Li       0.00000000       0.00000000       3.17818182       0.00000000       0.00000000       0.04022712
2
Properties=species:S:1:pos:R:3:forces:R:3 energy=-1.329507170156372 pbc="F F F"
Li       0.00000000       0.00000000       0.00000000       0.00000000       0.00000000      -0.05363742
Li       0.00000000       0.00000000       3.23696970       0.00000000       0.00000000       0.05363742
2
Properties=species:S:1:pos:R:3:forces:R:3 energy=-1.3308109348981216 pbc="F F F"
Li       0.00000000       0.00000000       0.00000000       0.00000000       0.00000000       0.02168795
Li       0.00000000       0.00000000       3.29575758       0.00000000       0.00000000      -0.02168795
2
Properties=species:S:1:pos:R:3:forces:R:3 energy=-1.326111088379495 pbc="F F F"
Li       0.00000000       0.00000000       0.00000000       0.00000000       0.00000000       0.14022373
Li       0.00000000       0.00000000       3.35454545       0.00000000       0.00000000      -0.14022373
2
Properties=species:S:1:pos:R:3:forces:R:3 energy=-1.3145175524842916 pbc="F F F"
Li       0.00000000       0.00000000       0.00000000       0.00000000       0.00000000       0.25015074
Li       0.00000000       0.00000000       3.41333333       0.00000000       0.00000000      -0.25015074
2
Properties=species:S:1:pos:R:3:forces:R:3 energy=-1.2972706324519707 pbc="F F F"
Li       0.00000000       0.00000000       0.00000000       0.00000000       0.00000000       0.33161098
Li       0.00000000       0.00000000       3.47212121       0.00000000       0.00000000      -0.33161098
2
Properties=species:S:1:pos:R:3:forces:R:3 energy=-1.276061463798308 pbc="F F F"
Li       0.00000000       0.00000000       0.00000000       0.00000000       0.00000000       0.38600633
Li       0.00000000       0.00000000       3.53090909       0.00000000       0.00000000      -0.38600633
2
Properties=species:S:1:pos:R:3:forces:R:3 energy=-1.2522751112915649 pbc="F F F"
Li       0.00000000       0.00000000       0.00000000       0.00000000       0.00000000       0.42049327
Li       0.00000000       0.00000000       3.58969697       0.00000000       0.00000000      -0.42049327
2
Properties=species:S:1:pos:R:3:forces:R:3 energy=-1.2268842254826797 pbc="F F F"
Li       0.00000000       0.00000000       0.00000000       0.00000000       0.00000000       0.44150397
Li       0.00000000       0.00000000       3.64848485       0.00000000       0.00000000      -0.44150397
2
Properties=species:S:1:pos:R:3:forces:R:3 energy=-1.200540445877576 pbc="F F F"
Li       0.00000000       0.00000000       0.00000000       0.00000000       0.00000000       0.45350462
Li       0.00000000       0.00000000       3.70727273       0.00000000       0.00000000      -0.45350462
2
Properties=species:S:1:pos:R:3:forces:R:3 energy=-1.1736834014886774 pbc="F F F"
Li       0.00000000       0.00000000       0.00000000       0.00000000       0.00000000       0.45933113
Li       0.00000000       0.00000000       3.76606061       0.00000000       0.00000000      -0.45933113
2
Properties=species:S:1:pos:R:3:forces:R:3 energy=-1.1466210320844203 pbc="F F F"
Li       0.00000000       0.00000000       0.00000000       0.00000000       0.00000000       0.46071586
Li       0.00000000       0.00000000       3.82484848       0.00000000       0.00000000      -0.46071586
2
Properties=species:S:1:pos:R:3:forces:R:3 energy=-1.1195807527319557 pbc="F F F"
Li       0.00000000       0.00000000       0.00000000       0.00000000       0.00000000       0.45869118
Li       0.00000000       0.00000000       3.88363636       0.00000000       0.00000000      -0.45869118
2
Properties=species:S:1:pos:R:3:forces:R:3 energy=-1.0927443325498551 pbc="F F F"
Li       0.00000000       0.00000000       0.00000000       0.00000000       0.00000000       0.45386648
Li       0.00000000       0.00000000       3.94242424       0.00000000       0.00000000      -0.45386648
2
Properties=species:S:1:pos:R:3:forces:R:3 energy=-1.0662652075118835 pbc="F F F"
Li       0.00000000       0.00000000       0.00000000       0.00000000       0.00000000       0.44660330
Li       0.00000000       0.00000000       4.00121212       0.00000000       0.00000000      -0.44660330
2
Properties=species:S:1:pos:R:3:forces:R:3 energy=-1.0402780219273087 pbc="F F F"
Li       0.00000000       0.00000000       0.00000000       0.00000000       0.00000000       0.43714869
Li       0.00000000       0.00000000       4.06000000       0.00000000       0.00000000      -0.43714869
2
Properties=species:S:1:pos:R:3:forces:R:3 energy=-1.0149058272204727 pbc="F F F"
Li       0.00000000       0.00000000       0.00000000       0.00000000       0.00000000       0.42571893
Li       0.00000000       0.00000000       4.11878788       0.00000000       0.00000000      -0.42571893
2
Properties=species:S:1:pos:R:3:forces:R:3 energy=-0.9902575352106391 pbc="F F F"
Li       0.00000000       0.00000000       0.00000000       0.00000000       0.00000000       0.41255563
Li       0.00000000       0.00000000       4.17757576       0.00000000       0.00000000      -0.41255563
2
Properties=species:S:1:pos:R:3:forces:R:3 energy=-0.9664270314741583 pbc="F F F"
Li       0.00000000       0.00000000       0.00000000       0.00000000       0.00000000       0.39796281
Li       0.00000000       0.00000000       4.23636364       0.00000000       0.00000000      -0.39796281
2
Properties=species:S:1:pos:R:3:forces:R:3 energy=-0.9434873117546758 pbc="F F F"
Li       0.00000000       0.00000000       0.00000000       0.00000000       0.00000000       0.38231003
Li       0.00000000       0.00000000       4.29515152       0.00000000       0.00000000      -0.38231003
2
Properties=species:S:1:pos:R:3:forces:R:3 energy=-0.9214893144689874 pbc="F F F"
Li       0.00000000       0.00000000       0.00000000       0.00000000       0.00000000       0.36602008
Li       0.00000000       0.00000000       4.35393939       0.00000000       0.00000000      -0.36602008
2
Properties=species:S:1:pos:R:3:forces:R:3 energy=-0.9004568162983678 pbc="F F F"
Li       0.00000000       0.00000000       0.00000000       0.00000000       0.00000000       0.34951767
Li       0.00000000       0.00000000       4.41272727       0.00000000       0.00000000      -0.34951767
2
Properties=species:S:1:pos:R:3:forces:R:3 energy=-0.8803907692404565 pbc="F F F"
Li       0.00000000       0.00000000       0.00000000       0.00000000       0.00000000       0.33318806
Li       0.00000000       0.00000000       4.47151515       0.00000000       0.00000000      -0.33318806
2
Properties=species:S:1:pos:R:3:forces:R:3 energy=-0.8612726926583754 pbc="F F F"
Li       0.00000000       0.00000000       0.00000000       0.00000000       0.00000000       0.31730583
Li       0.00000000       0.00000000       4.53030303       0.00000000       0.00000000      -0.31730583
2
Properties=species:S:1:pos:R:3:forces:R:3 energy=-0.8430722940037125 pbc="F F F"
Li       0.00000000       0.00000000       0.00000000       0.00000000       0.00000000       0.30199033
Li       0.00000000       0.00000000       4.58909091       0.00000000       0.00000000      -0.30199033
2
Properties=species:S:1:pos:R:3:forces:R:3 energy=-0.8257565273066328 pbc="F F F"
Li       0.00000000       0.00000000       0.00000000       0.00000000       0.00000000       0.28717482
Li       0.00000000       0.00000000       4.64787879       0.00000000       0.00000000      -0.28717482
2
Properties=species:S:1:pos:R:3:forces:R:3 energy=-0.8093019590158289 pbc="F F F"
Li       0.00000000       0.00000000       0.00000000       0.00000000       0.00000000       0.27262539
Li       0.00000000       0.00000000       4.70666667       0.00000000       0.00000000      -0.27262539
2
Properties=species:S:1:pos:R:3:forces:R:3 energy=-0.7937031975960106 pbc="F F F"
Li       0.00000000       0.00000000       0.00000000       0.00000000       0.00000000       0.25802228
Li       0.00000000       0.00000000       4.76545455       0.00000000       0.00000000      -0.25802228
2
Properties=species:S:1:pos:R:3:forces:R:3 energy=-0.7789714653523355 pbc="F F F"
Li       0.00000000       0.00000000       0.00000000       0.00000000       0.00000000       0.24307978
Li       0.00000000       0.00000000       4.82424242       0.00000000       0.00000000      -0.24307978
2
Properties=species:S:1:pos:R:3:forces:R:3 energy=-0.7651319401480764 pbc="F F F"
Li       0.00000000       0.00000000       0.00000000       0.00000000       0.00000000       0.22772463
Li       0.00000000       0.00000000       4.88303030       0.00000000       0.00000000      -0.22772463
2
Properties=species:S:1:pos:R:3:forces:R:3 energy=-0.7521997206455947 pbc="F F F"
Li       0.00000000       0.00000000       0.00000000       0.00000000       0.00000000       0.21223745
Li       0.00000000       0.00000000       4.94181818       0.00000000       0.00000000      -0.21223745
2
Properties=species:S:1:pos:R:3:forces:R:3 energy=-0.7401660663049454 pbc="F F F"
Li       0.00000000       0.00000000       0.00000000       0.00000000       0.00000000       0.19731659
Li       0.00000000       0.00000000       5.00060606       0.00000000       0.00000000      -0.19731659
2
Properties=species:S:1:pos:R:3:forces:R:3 energy=-0.7289690880737927 pbc="F F F"
Li       0.00000000       0.00000000       0.00000000       0.00000000       0.00000000       0.18395901
Li       0.00000000       0.00000000       5.05939394       0.00000000       0.00000000      -0.18395901
2
Properties=species:S:1:pos:R:3:forces:R:3 energy=-0.7184868089060383 pbc="F F F"
Li       0.00000000       0.00000000       0.00000000       0.00000000       0.00000000       0.17313789
Li       0.00000000       0.00000000       5.11818182       0.00000000       0.00000000      -0.17313789
2
Properties=species:S:1:pos:R:3:forces:R:3 energy=-0.7085535522073477 pbc="F F F"
Li       0.00000000       0.00000000       0.00000000       0.00000000       0.00000000       0.16529711
Li       0.00000000       0.00000000       5.17696970       0.00000000       0.00000000      -0.16529711
2
Properties=species:S:1:pos:R:3:forces:R:3 energy=-0.699006915214982 pbc="F F F"
Li       0.00000000       0.00000000       0.00000000       0.00000000       0.00000000       0.15973444
Li       0.00000000       0.00000000       5.23575758       0.00000000       0.00000000      -0.15973444
2
Properties=species:S:1:pos:R:3:forces:R:3 energy=-0.6897722299473978 pbc="F F F"
Li       0.00000000       0.00000000       0.00000000       0.00000000       0.00000000       0.15417179
Li       0.00000000       0.00000000       5.29454545       0.00000000       0.00000000      -0.15417179
2
Properties=species:S:1:pos:R:3:forces:R:3 energy=-0.6809421599156813 pbc="F F F"
Li       0.00000000       0.00000000       0.00000000       0.00000000       0.00000000       0.14551800
Li       0.00000000       0.00000000       5.35333333       0.00000000       0.00000000      -0.14551800
2
Properties=species:S:1:pos:R:3:forces:R:3 energy=-0.6727219983147785 pbc="F F F"
Li       0.00000000       0.00000000       0.00000000       0.00000000       0.00000000       0.13415533
Li       0.00000000       0.00000000       5.41212121       0.00000000       0.00000000      -0.13415533
2
Properties=species:S:1:pos:R:3:forces:R:3 energy=-0.6650556391261224 pbc="F F F"
Li       0.00000000       0.00000000       0.00000000       0.00000000       0.00000000       0.12843268
Li       0.00000000       0.00000000       5.47090909       0.00000000       0.00000000      -0.12843268
2
Properties=species:S:1:pos:R:3:forces:R:3 energy=-0.6574453643500526 pbc="F F F"
Li       0.00000000       0.00000000       0.00000000       0.00000000       0.00000000       0.13070497
Li       0.00000000       0.00000000       5.52969697       0.00000000       0.00000000      -0.13070497
2
Properties=species:S:1:pos:R:3:forces:R:3 energy=-0.6498570914242413 pbc="F F F"
Li       0.00000000       0.00000000       0.00000000       0.00000000       0.00000000       0.12503527
Li       0.00000000       0.00000000       5.58848485       0.00000000       0.00000000      -0.12503527
2
Properties=species:S:1:pos:R:3:forces:R:3 energy=-0.6429690176272008 pbc="F F F"
Li       0.00000000       0.00000000       0.00000000       0.00000000       0.00000000       0.10864259
Li       0.00000000       0.00000000       5.64727273       0.00000000       0.00000000      -0.10864259
2
Properties=species:S:1:pos:R:3:forces:R:3 energy=-0.6369522460944494 pbc="F F F"
Li       0.00000000       0.00000000       0.00000000       0.00000000       0.00000000       0.09900385
Li       0.00000000       0.00000000       5.70606061       0.00000000       0.00000000      -0.09900385
2
Properties=species:S:1:pos:R:3:forces:R:3 energy=-0.6309153281339795 pbc="F F F"
Li       0.00000000       0.00000000       0.00000000       0.00000000       0.00000000       0.10833686
Li       0.00000000       0.00000000       5.76484848       0.00000000       0.00000000      -0.10833686
2
Properties=species:S:1:pos:R:3:forces:R:3 energy=-0.6243791997521335 pbc="F F F"
Li       0.00000000       0.00000000       0.00000000       0.00000000       0.00000000       0.10933673
Li       0.00000000       0.00000000       5.82363636       0.00000000       0.00000000      -0.10933673
2
Properties=species:S:1:pos:R:3:forces:R:3 energy=-0.6187756180806151 pbc="F F F"
Li       0.00000000       0.00000000       0.00000000       0.00000000       0.00000000       0.07708430
Li       0.00000000       0.00000000       5.88242424       0.00000000       0.00000000      -0.07708430
2
Properties=species:S:1:pos:R:3:forces:R:3 energy=-0.6154780587479081 pbc="F F F"
Li       0.00000000       0.00000000       0.00000000       0.00000000       0.00000000       0.03650108
Li       0.00000000       0.00000000       5.94121212       0.00000000       0.00000000      -0.03650108
2
Properties=species:S:1:pos:R:3:forces:R:3 energy=-0.6140097834295283 pbc="F F F"
Li       0.00000000       0.00000000       0.00000000       0.00000000       0.00000000       0.01887134
Li       0.00000000       0.00000000       6.00000000       0.00000000       0.00000000      -0.01887134
