2
Properties=species:S:1:pos:R:3:forces:R:3 energy=370.6623078423504 pbc="F F F"
Li       0.00000000       0.00000000       0.00000000       0.00000000       0.00000000   -6662.72216797
Li       0.00000000       0.00000000       0.10000000       0.00000000       0.00000000    6662.72216797
2
Properties=species:S:1:pos:R:3:forces:R:3 energy=148.10758982477228 pbc="F F F"
Li       0.00000000       0.00000000       0.00000000       0.00000000       0.00000000   -1997.33813477
Li       0.00000000       0.00000000       0.15959596       0.00000000       0.00000000    1997.33813477
2
Properties=species:S:1:pos:R:3:forces:R:3 energy=71.01333628473321 pbc="F F F"
Li       0.00000000       0.00000000       0.00000000       0.00000000       0.00000000    -809.84185791
Li       0.00000000       0.00000000       0.21919192       0.00000000       0.00000000     809.84185791
2
Properties=species:S:1:pos:R:3:forces:R:3 energy=37.344844921207816 pbc="F F F"
Li       0.00000000       0.00000000       0.00000000       0.00000000       0.00000000    -383.80413818
Li       0.00000000       0.00000000       0.27878788       0.00000000       0.00000000     383.80413818
2
Properties=species:S:1:pos:R:3:forces:R:3 energy=20.63865481195489 pbc="F F F"
Li       0.00000000       0.00000000       0.00000000       0.00000000       0.00000000    -200.07914734
Li       0.00000000       0.00000000       0.33838384       0.00000000       0.00000000     200.07914734
2
Properties=species:S:1:pos:R:3:forces:R:3 energy=11.695199119016754 pbc="F F F"
Li       0.00000000       0.00000000       0.00000000       0.00000000       0.00000000    -109.69557190
Li       0.00000000       0.00000000       0.39797980       0.00000000       0.00000000     109.69557190
2
Properties=species:S:1:pos:R:3:forces:R:3 energy=6.791189783158795 pbc="F F F"
Li       0.00000000       0.00000000       0.00000000       0.00000000       0.00000000     -59.10649490
Li       0.00000000       0.00000000       0.45757576       0.00000000       0.00000000      59.10649490
2
Properties=species:S:1:pos:R:3:forces:R:3 energy=4.312661774647881 pbc="F F F"
Li       0.00000000       0.00000000       0.00000000       0.00000000       0.00000000     -25.87461472
Li       0.00000000       0.00000000       0.51717172       0.00000000       0.00000000      25.87461472
2
Properties=species:S:1:pos:R:3:forces:R:3 energy=3.568322093892998 pbc="F F F"
Li       0.00000000       0.00000000       0.00000000       0.00000000       0.00000000       0.18196003
Li       0.00000000       0.00000000       0.57676768       0.00000000       0.00000000      -0.18196003
2
Properties=species:S:1:pos:R:3:forces:R:3 energy=4.279260347162601 pbc="F F F"
Li       0.00000000       0.00000000       0.00000000       0.00000000       0.00000000      23.35100174
Li       0.00000000       0.00000000       0.63636364       0.00000000       0.00000000     -23.35100174
2
Properties=species:S:1:pos:R:3:forces:R:3 energy=6.260646118374268 pbc="F F F"
Li       0.00000000       0.00000000       0.00000000       0.00000000       0.00000000      40.47185898
Li       0.00000000       0.00000000       0.69595960       0.00000000       0.00000000     -40.47185898
2
Properties=species:S:1:pos:R:3:forces:R:3 energy=8.151703231042086 pbc="F F F"
Li       0.00000000       0.00000000       0.00000000       0.00000000       0.00000000      15.26050568
Li       0.00000000       0.00000000       0.75555556       0.00000000       0.00000000     -15.26050568
2
Properties=species:S:1:pos:R:3:forces:R:3 energy=8.361507911674016 pbc="F F F"
Li       0.00000000       0.00000000       0.00000000       0.00000000       0.00000000      -6.43749523
Li       0.00000000       0.00000000       0.81515152       0.00000000       0.00000000       6.43749523
2
Properties=species:S:1:pos:R:3:forces:R:3 energy=7.659196604942172 pbc="F F F"
Li       0.00000000       0.00000000       0.00000000       0.00000000       0.00000000     -15.15749741
Li       0.00000000       0.00000000       0.87474747       0.00000000       0.00000000      15.15749741
2
Properties=species:S:1:pos:R:3:forces:R:3 energy=6.7026725290327125 pbc="F F F"
Li       0.00000000       0.00000000       0.00000000       0.00000000       0.00000000     -16.44397354
Li       0.00000000       0.00000000       0.93434343       0.00000000       0.00000000      16.44397354
2
Properties=species:S:1:pos:R:3:forces:R:3 energy=5.721013050044489 pbc="F F F"
Li       0.00000000       0.00000000       0.00000000       0.00000000       0.00000000     -16.34823799
Li       0.00000000       0.00000000       0.99393939       0.00000000       0.00000000      16.34823799
2
Properties=species:S:1:pos:R:3:forces:R:3 energy=4.781738344425108 pbc="F F F"
Li       0.00000000       0.00000000       0.00000000       0.00000000       0.00000000     -14.92343712
Li       0.00000000       0.00000000       1.05353535       0.00000000       0.00000000      14.92343712
2
Properties=species:S:1:pos:R:3:forces:R:3 energy=3.9584942803428538 pbc="F F F"
Li       0.00000000       0.00000000       0.00000000       0.00000000       0.00000000     -12.72165394
Li       0.00000000       0.00000000       1.11313131       0.00000000       0.00000000      12.72165394
2
Properties=species:S:1:pos:R:3:forces:R:3 energy=3.256420019371504 pbc="F F F"
Li       0.00000000       0.00000000       0.00000000       0.00000000       0.00000000     -10.86510468
Li       0.00000000       0.00000000       1.17272727       0.00000000       0.00000000      10.86510468
2
Properties=species:S:1:pos:R:3:forces:R:3 energy=2.666320292356979 pbc="F F F"
Li       0.00000000       0.00000000       0.00000000       0.00000000       0.00000000      -8.94555378
Li       0.00000000       0.00000000       1.23232323       0.00000000       0.00000000       8.94555378
2
Properties=species:S:1:pos:R:3:forces:R:3 energy=2.1814116819948572 pbc="F F F"
Li       0.00000000       0.00000000       0.00000000       0.00000000       0.00000000      -7.43322945
Li       0.00000000       0.00000000       1.29191919       0.00000000       0.00000000       7.43322945
2
Properties=species:S:1:pos:R:3:forces:R:3 energy=1.769047134607158 pbc="F F F"
Li       0.00000000       0.00000000       0.00000000       0.00000000       0.00000000      -6.47949886
Li       0.00000000       0.00000000       1.35151515       0.00000000       0.00000000       6.47949886
2
Properties=species:S:1:pos:R:3:forces:R:3 energy=1.4030576819838674 pbc="F F F"
Li       0.00000000       0.00000000       0.00000000       0.00000000       0.00000000      -5.83202124
Li       0.00000000       0.00000000       1.41111111       0.00000000       0.00000000       5.83202124
2
Properties=species:S:1:pos:R:3:forces:R:3 energy=1.0721843544353575 pbc="F F F"
Li       0.00000000       0.00000000       0.00000000       0.00000000       0.00000000      -5.27810860
Li       0.00000000       0.00000000       1.47070707       0.00000000       0.00000000       5.27810860
2
Properties=species:S:1:pos:R:3:forces:R:3 energy=0.7733116827035489 pbc="F F F"
Li       0.00000000       0.00000000       0.00000000       0.00000000       0.00000000      -4.75905895
Li       0.00000000       0.00000000       1.53030303       0.00000000       0.00000000       4.75905895
2
Properties=species:S:1:pos:R:3:forces:R:3 energy=0.5036766540501183 pbc="F F F"
Li       0.00000000       0.00000000       0.00000000       0.00000000       0.00000000      -4.30316067
Li       0.00000000       0.00000000       1.58989899       0.00000000       0.00000000       4.30316067
2
Properties=species:S:1:pos:R:3:forces:R:3 energy=0.2589375344370653 pbc="F F F"
Li       0.00000000       0.00000000       0.00000000       0.00000000       0.00000000      -3.91813159
Li       0.00000000       0.00000000       1.64949495       0.00000000       0.00000000       3.91813159
2
Properties=species:S:1:pos:R:3:forces:R:3 energy=0.0364019242071687 pbc="F F F"
Li       0.00000000       0.00000000       0.00000000       0.00000000       0.00000000      -3.54811597
Li       0.00000000       0.00000000       1.70909091       0.00000000       0.00000000       3.54811597
2
Properties=species:S:1:pos:R:3:forces:R:3 energy=-0.1637218972518652 pbc="F F F"
Li       0.00000000       0.00000000       0.00000000       0.00000000       0.00000000      -3.16773200
Li       0.00000000       0.00000000       1.76868687       0.00000000       0.00000000       3.16773200
2
Properties=species:S:1:pos:R:3:forces:R:3 energy=-0.3414848692765593 pbc="F F F"
Li       0.00000000       0.00000000       0.00000000       0.00000000       0.00000000      -2.80296707
Li       0.00000000       0.00000000       1.82828283       0.00000000       0.00000000       2.80296707
2
Properties=species:S:1:pos:R:3:forces:R:3 energy=-0.49858069798591315 pbc="F F F"
Li       0.00000000       0.00000000       0.00000000       0.00000000       0.00000000      -2.47599792
Li       0.00000000       0.00000000       1.88787879       0.00000000       0.00000000       2.47599792
2
Properties=species:S:1:pos:R:3:forces:R:3 energy=-0.6373773229854259 pbc="F F F"
Li       0.00000000       0.00000000       0.00000000       0.00000000       0.00000000      -2.18770266
Li       0.00000000       0.00000000       1.94747475       0.00000000       0.00000000       2.18770266
2
Properties=species:S:1:pos:R:3:forces:R:3 energy=-0.7599211374128774 pbc="F F F"
Li       0.00000000       0.00000000       0.00000000       0.00000000       0.00000000      -1.92886853
Li       0.00000000       0.00000000       2.00707071       0.00000000       0.00000000       1.92886853
2
Properties=species:S:1:pos:R:3:forces:R:3 energy=-0.8677053709163632 pbc="F F F"
Li       0.00000000       0.00000000       0.00000000       0.00000000       0.00000000      -1.69145441
Li       0.00000000       0.00000000       2.06666667       0.00000000       0.00000000       1.69145441
2
Properties=species:S:1:pos:R:3:forces:R:3 energy=-0.9618770578637872 pbc="F F F"
Li       0.00000000       0.00000000       0.00000000       0.00000000       0.00000000      -1.47166491
Li       0.00000000       0.00000000       2.12626263       0.00000000       0.00000000       1.47166491
2
Properties=species:S:1:pos:R:3:forces:R:3 energy=-1.0434388313276233 pbc="F F F"
Li       0.00000000       0.00000000       0.00000000       0.00000000       0.00000000      -1.26813579
Li       0.00000000       0.00000000       2.18585859       0.00000000       0.00000000       1.26813579
2
Properties=species:S:1:pos:R:3:forces:R:3 energy=-1.1133338735429614 pbc="F F F"
Li       0.00000000       0.00000000       0.00000000       0.00000000       0.00000000      -1.07998502
Li       0.00000000       0.00000000       2.24545455       0.00000000       0.00000000       1.07998502
2
Properties=species:S:1:pos:R:3:forces:R:3 energy=-1.172452016340135 pbc="F F F"
Li       0.00000000       0.00000000       0.00000000       0.00000000       0.00000000      -0.90631020
Li       0.00000000       0.00000000       2.30505051       0.00000000       0.00000000       0.90631020
2
Properties=species:S:1:pos:R:3:forces:R:3 energy=-1.221633847281625 pbc="F F F"
Li       0.00000000       0.00000000       0.00000000       0.00000000       0.00000000      -0.74647009
Li       0.00000000       0.00000000       2.36464646       0.00000000       0.00000000       0.74647009
2
Properties=species:S:1:pos:R:3:forces:R:3 energy=-1.2616967815705022 pbc="F F F"
Li       0.00000000       0.00000000       0.00000000       0.00000000       0.00000000      -0.60030061
Li       0.00000000       0.00000000       2.42424242       0.00000000       0.00000000       0.60030061
2
Properties=species:S:1:pos:R:3:forces:R:3 energy=-1.2934589968632078 pbc="F F F"
Li       0.00000000       0.00000000       0.00000000       0.00000000       0.00000000      -0.46794274
Li       0.00000000       0.00000000       2.48383838       0.00000000       0.00000000       0.46794274
2
Properties=species:S:1:pos:R:3:forces:R:3 energy=-1.3177470347458273 pbc="F F F"
Li       0.00000000       0.00000000       0.00000000       0.00000000       0.00000000      -0.34944943
Li       0.00000000       0.00000000       2.54343434       0.00000000       0.00000000       0.34944943
2
Properties=species:S:1:pos:R:3:forces:R:3 energy=-1.3353800247744347 pbc="F F F"
Li       0.00000000       0.00000000       0.00000000       0.00000000       0.00000000      -0.24446225
Li       0.00000000       0.00000000       2.60303030       0.00000000       0.00000000       0.24446225
2
Properties=species:S:1:pos:R:3:forces:R:3 energy=-1.3471371797133822 pbc="F F F"
Li       0.00000000       0.00000000       0.00000000       0.00000000       0.00000000      -0.15217662
Li       0.00000000       0.00000000       2.66262626       0.00000000       0.00000000       0.15217662
2
Properties=species:S:1:pos:R:3:forces:R:3 energy=-1.3537522738631922 pbc="F F F"
Li       0.00000000       0.00000000       0.00000000       0.00000000       0.00000000      -0.07171113
Li       0.00000000       0.00000000       2.72222222       0.00000000       0.00000000       0.07171113
2
Properties=species:S:1:pos:R:3:forces:R:3 energy=-1.355906911841611 pbc="F F F"
Li       0.00000000       0.00000000       0.00000000       0.00000000       0.00000000      -0.00242348
Li       0.00000000       0.00000000       2.78181818       0.00000000       0.00000000       0.00242348
2
Properties=species:S:1:pos:R:3:forces:R:3 energy=-1.3542652308746193 pbc="F F F"
Li       0.00000000       0.00000000       0.00000000       0.00000000       0.00000000       0.05554243
Li       0.00000000       0.00000000       2.84141414       0.00000000       0.00000000      -0.05554243
2
Properties=species:S:1:pos:R:3:forces:R:3 energy=-1.349544836444652 pbc="F F F"
Li       0.00000000       0.00000000       0.00000000       0.00000000       0.00000000       0.10039540
Li       0.00000000       0.00000000       2.90101010       0.00000000       0.00000000      -0.10039540
2
Properties=species:S:1:pos:R:3:forces:R:3 energy=-1.3426537986138645 pbc="F F F"
Li       0.00000000       0.00000000       0.00000000       0.00000000       0.00000000       0.12720650
Li       0.00000000       0.00000000       2.96060606       0.00000000       0.00000000      -0.12720650
2
Properties=species:S:1:pos:R:3:forces:R:3 energy=-1.3349340267105048 pbc="F F F"
Li       0.00000000       0.00000000       0.00000000       0.00000000       0.00000000       0.12611160
Li       0.00000000       0.00000000       3.02020202       0.00000000       0.00000000      -0.12611160
2
Properties=species:S:1:pos:R:3:forces:R:3 energy=-1.3284332462651272 pbc="F F F"
Li       0.00000000       0.00000000       0.00000000       0.00000000       0.00000000       0.08463065
Li       0.00000000       0.00000000       3.07979798       0.00000000       0.00000000      -0.08463065
2
Properties=species:S:1:pos:R:3:forces:R:3 energy=-1.3256014441153539 pbc="F F F"
Li       0.00000000       0.00000000       0.00000000       0.00000000       0.00000000       0.00700805
Li       0.00000000       0.00000000       3.13939394       0.00000000       0.00000000      -0.00700805
2
Properties=species:S:1:pos:R:3:forces:R:3 energy=-1.3273115994466964 pbc="F F F"
Li       0.00000000       0.00000000       0.00000000       0.00000000       0.00000000      -0.05524299
Li       0.00000000       0.00000000       3.19898990       0.00000000       0.00000000       0.05524299
2
Properties=species:S:1:pos:R:3:forces:R:3 energy=-1.3304861908068113 pbc="F F F"
Li       0.00000000       0.00000000       0.00000000       0.00000000       0.00000000      -0.03489760
Li       0.00000000       0.00000000       3.25858586       0.00000000       0.00000000       0.03489760
2
Properties=species:S:1:pos:R:3:forces:R:3 energy=-1.329844543795637 pbc="F F F"
Li       0.00000000       0.00000000       0.00000000       0.00000000       0.00000000       0.06521761
Li       0.00000000       0.00000000       3.31818182       0.00000000       0.00000000      -0.06521761
2
Properties=species:S:1:pos:R:3:forces:R:3 energy=-1.3223101950134273 pbc="F F F"
Li       0.00000000       0.00000000       0.00000000       0.00000000       0.00000000       0.18650395
Li       0.00000000       0.00000000       3.37777778       0.00000000       0.00000000      -0.18650395
2
Properties=species:S:1:pos:R:3:forces:R:3 energy=-1.3080495791709803 pbc="F F F"
Li       0.00000000       0.00000000       0.00000000       0.00000000       0.00000000       0.28709093
Li       0.00000000       0.00000000       3.43737374       0.00000000       0.00000000      -0.28709093
2
Properties=species:S:1:pos:R:3:forces:R:3 energy=-1.2886994467697916 pbc="F F F"
Li       0.00000000       0.00000000       0.00000000       0.00000000       0.00000000       0.35751247
Li       0.00000000       0.00000000       3.49696970       0.00000000       0.00000000      -0.35751247
2
Properties=species:S:1:pos:R:3:forces:R:3 energy=-1.2659311631401304 pbc="F F F"
Li       0.00000000       0.00000000       0.00000000       0.00000000       0.00000000       0.40308359
Li       0.00000000       0.00000000       3.55656566       0.00000000       0.00000000      -0.40308359
2
Properties=species:S:1:pos:R:3:forces:R:3 energy=-1.2409981550654852 pbc="F F F"
Li       0.00000000       0.00000000       0.00000000       0.00000000       0.00000000       0.43130824
Li       0.00000000       0.00000000       3.61616162       0.00000000       0.00000000      -0.43130824
2
Properties=species:S:1:pos:R:3:forces:R:3 energy=-1.2147508272251435 pbc="F F F"
Li       0.00000000       0.00000000       0.00000000       0.00000000       0.00000000       0.44798848
Li       0.00000000       0.00000000       3.67575758       0.00000000       0.00000000      -0.44798848
2
Properties=species:S:1:pos:R:3:forces:R:3 energy=-1.1877542584338376 pbc="F F F"
Li       0.00000000       0.00000000       0.00000000       0.00000000       0.00000000       0.45693046
Li       0.00000000       0.00000000       3.73535354       0.00000000       0.00000000      -0.45693046
2
Properties=species:S:1:pos:R:3:forces:R:3 energy=-1.160394794791948 pbc="F F F"
Li       0.00000000       0.00000000       0.00000000       0.00000000       0.00000000       0.46048963
Li       0.00000000       0.00000000       3.79494949       0.00000000       0.00000000      -0.46048963
2
Properties=species:S:1:pos:R:3:forces:R:3 energy=-1.13294660410851 pbc="F F F"
Li       0.00000000       0.00000000       0.00000000       0.00000000       0.00000000       0.46007392
Li       0.00000000       0.00000000       3.85454545       0.00000000       0.00000000      -0.46007392
2
Properties=species:S:1:pos:R:3:forces:R:3 energy=-1.1056199769479684 pbc="F F F"
Li       0.00000000       0.00000000       0.00000000       0.00000000       0.00000000       0.45651007
Li       0.00000000       0.00000000       3.91414141       0.00000000       0.00000000      -0.45651007
2
Properties=species:S:1:pos:R:3:forces:R:3 energy=-1.0785870621608236 pbc="F F F"
Li       0.00000000       0.00000000       0.00000000       0.00000000       0.00000000       0.45028374
Li       0.00000000       0.00000000       3.97373737       0.00000000       0.00000000      -0.45028374
2
Properties=species:S:1:pos:R:3:forces:R:3 energy=-1.0519966200871076 pbc="F F F"
Li       0.00000000       0.00000000       0.00000000       0.00000000       0.00000000       0.44169542
Li       0.00000000       0.00000000       4.03333333       0.00000000       0.00000000      -0.44169542
2
Properties=species:S:1:pos:R:3:forces:R:3 energy=-1.0259828657716858 pbc="F F F"
Li       0.00000000       0.00000000       0.00000000       0.00000000       0.00000000       0.43097568
Li       0.00000000       0.00000000       4.09292929       0.00000000       0.00000000      -0.43097568
2
Properties=species:S:1:pos:R:3:forces:R:3 energy=-1.000665403056636 pbc="F F F"
Li       0.00000000       0.00000000       0.00000000       0.00000000       0.00000000       0.41835856
Li       0.00000000       0.00000000       4.15252525       0.00000000       0.00000000      -0.41835856
2
Properties=species:S:1:pos:R:3:forces:R:3 energy=-0.9761501748561345 pbc="F F F"
Li       0.00000000       0.00000000       0.00000000       0.00000000       0.00000000       0.40413171
Li       0.00000000       0.00000000       4.21212121       0.00000000       0.00000000      -0.40413171
2
Properties=species:S:1:pos:R:3:forces:R:3 energy=-0.9525212418914024 pbc="F F F"
Li       0.00000000       0.00000000       0.00000000       0.00000000       0.00000000       0.38865051
Li       0.00000000       0.00000000       4.27171717       0.00000000       0.00000000      -0.38865051
2
Properties=species:S:1:pos:R:3:forces:R:3 energy=-0.9298425519992997 pbc="F F F"
Li       0.00000000       0.00000000       0.00000000       0.00000000       0.00000000       0.37233779
Li       0.00000000       0.00000000       4.33131313       0.00000000       0.00000000      -0.37233779
2
Properties=species:S:1:pos:R:3:forces:R:3 energy=-0.9081493138819198 pbc="F F F"
Li       0.00000000       0.00000000       0.00000000       0.00000000       0.00000000       0.35564023
Li       0.00000000       0.00000000       4.39090909       0.00000000       0.00000000      -0.35564023
2
Properties=species:S:1:pos:R:3:forces:R:3 energy=-0.8874517366961332 pbc="F F F"
Li       0.00000000       0.00000000       0.00000000       0.00000000       0.00000000       0.33898363
Li       0.00000000       0.00000000       4.45050505       0.00000000       0.00000000      -0.33898363
2
Properties=species:S:1:pos:R:3:forces:R:3 energy=-0.8677377324374883 pbc="F F F"
Li       0.00000000       0.00000000       0.00000000       0.00000000       0.00000000       0.32270265
Li       0.00000000       0.00000000       4.51010101       0.00000000       0.00000000      -0.32270265
2
Properties=species:S:1:pos:R:3:forces:R:3 energy=-0.8489771619571721 pbc="F F F"
Li       0.00000000       0.00000000       0.00000000       0.00000000       0.00000000       0.30698061
Li       0.00000000       0.00000000       4.56969697       0.00000000       0.00000000      -0.30698061
2
Properties=species:S:1:pos:R:3:forces:R:3 energy=-0.8311366063305886 pbc="F F F"
Li       0.00000000       0.00000000       0.00000000       0.00000000       0.00000000       0.29181576
Li       0.00000000       0.00000000       4.62929293       0.00000000       0.00000000      -0.29181576
2
Properties=species:S:1:pos:R:3:forces:R:3 energy=-0.8141879259995233 pbc="F F F"
Li       0.00000000       0.00000000       0.00000000       0.00000000       0.00000000       0.27701595
Li       0.00000000       0.00000000       4.68888889       0.00000000       0.00000000      -0.27701595
2
Properties=species:S:1:pos:R:3:forces:R:3 energy=-0.798117732495028 pbc="F F F"
Li       0.00000000       0.00000000       0.00000000       0.00000000       0.00000000       0.26226184
Li       0.00000000       0.00000000       4.74848485       0.00000000       0.00000000      -0.26226184
2
Properties=species:S:1:pos:R:3:forces:R:3 energy=-0.7829340744930205 pbc="F F F"
Li       0.00000000       0.00000000       0.00000000       0.00000000       0.00000000       0.24723113
Li       0.00000000       0.00000000       4.80808081       0.00000000       0.00000000      -0.24723113
2
Properties=species:S:1:pos:R:3:forces:R:3 energy=-0.7686585833445307 pbc="F F F"
Li       0.00000000       0.00000000       0.00000000       0.00000000       0.00000000       0.23176555
Li       0.00000000       0.00000000       4.86767677       0.00000000       0.00000000      -0.23176555
2
Properties=species:S:1:pos:R:3:forces:R:3 energy=-0.7553143505740801 pbc="F F F"
Li       0.00000000       0.00000000       0.00000000       0.00000000       0.00000000       0.21604964
Li       0.00000000       0.00000000       4.92727273       0.00000000       0.00000000      -0.21604964
2
Properties=species:S:1:pos:R:3:forces:R:3 energy=-0.7428999526779065 pbc="F F F"
Li       0.00000000       0.00000000       0.00000000       0.00000000       0.00000000       0.20070237
Li       0.00000000       0.00000000       4.98686869       0.00000000       0.00000000      -0.20070237
2
Properties=species:S:1:pos:R:3:forces:R:3 energy=-0.7313663997176049 pbc="F F F"
Li       0.00000000       0.00000000       0.00000000       0.00000000       0.00000000       0.18670818
Li       0.00000000       0.00000000       5.04646465       0.00000000       0.00000000      -0.18670818
2
Properties=species:S:1:pos:R:3:forces:R:3 energy=-0.7205983414340655 pbc="F F F"
Li       0.00000000       0.00000000       0.00000000       0.00000000       0.00000000       0.17512818
Li       0.00000000       0.00000000       5.10606061       0.00000000       0.00000000      -0.17512818
2
Properties=species:S:1:pos:R:3:forces:R:3 energy=-0.7104300269571503 pbc="F F F"
Li       0.00000000       0.00000000       0.00000000       0.00000000       0.00000000       0.16658884
Li       0.00000000       0.00000000       5.16565657       0.00000000       0.00000000      -0.16658884
2
Properties=species:S:1:pos:R:3:forces:R:3 energy=-0.7006889771713314 pbc="F F F"
Li       0.00000000       0.00000000       0.00000000       0.00000000       0.00000000       0.16064228
Li       0.00000000       0.00000000       5.22525253       0.00000000       0.00000000      -0.16064228
2
Properties=species:S:1:pos:R:3:forces:R:3 energy=-0.6912716806146861 pbc="F F F"
Li       0.00000000       0.00000000       0.00000000       0.00000000       0.00000000       0.15522872
Li       0.00000000       0.00000000       5.28484848       0.00000000       0.00000000      -0.15522872
2
Properties=species:S:1:pos:R:3:forces:R:3 energy=-0.6822422078238132 pbc="F F F"
Li       0.00000000       0.00000000       0.00000000       0.00000000       0.00000000       0.14709747
Li       0.00000000       0.00000000       5.34444444       0.00000000       0.00000000      -0.14709747
2
Properties=species:S:1:pos:R:3:forces:R:3 energy=-0.6738115817910957 pbc="F F F"
Li       0.00000000       0.00000000       0.00000000       0.00000000       0.00000000       0.13563427
Li       0.00000000       0.00000000       5.40404040       0.00000000       0.00000000      -0.13563427
2
Properties=species:S:1:pos:R:3:forces:R:3 energy=-0.6659879295461733 pbc="F F F"
Li       0.00000000       0.00000000       0.00000000       0.00000000       0.00000000       0.12854707
Li       0.00000000       0.00000000       5.46363636       0.00000000       0.00000000      -0.12854707
2
Properties=species:S:1:pos:R:3:forces:R:3 energy=-0.6582911984869361 pbc="F F F"
Li       0.00000000       0.00000000       0.00000000       0.00000000       0.00000000       0.13052179
Li       0.00000000       0.00000000       5.52323232       0.00000000       0.00000000      -0.13052179
2
Properties=species:S:1:pos:R:3:forces:R:3 energy=-0.650567997975043 pbc="F F F"
Li       0.00000000       0.00000000       0.00000000       0.00000000       0.00000000       0.12621298
Li       0.00000000       0.00000000       5.58282828       0.00000000       0.00000000      -0.12621298
2
Properties=species:S:1:pos:R:3:forces:R:3 energy=-0.6435004087583491 pbc="F F F"
Li       0.00000000       0.00000000       0.00000000       0.00000000       0.00000000       0.11003868
Li       0.00000000       0.00000000       5.64242424       0.00000000       0.00000000      -0.11003868
2
Properties=species:S:1:pos:R:3:forces:R:3 energy=-0.6373476526440237 pbc="F F F"
Li       0.00000000       0.00000000       0.00000000       0.00000000       0.00000000       0.09905528
Li       0.00000000       0.00000000       5.70202020       0.00000000       0.00000000      -0.09905528
2
Properties=species:S:1:pos:R:3:forces:R:3 energy=-0.6312757675760289 pbc="F F F"
Li       0.00000000       0.00000000       0.00000000       0.00000000       0.00000000       0.10749470
Li       0.00000000       0.00000000       5.76161616       0.00000000       0.00000000      -0.10749470
2
Properties=species:S:1:pos:R:3:forces:R:3 energy=-0.6246477327482611 pbc="F F F"
Li       0.00000000       0.00000000       0.00000000       0.00000000       0.00000000       0.10993067
Li       0.00000000       0.00000000       5.82121212       0.00000000       0.00000000      -0.10993067
2
Properties=species:S:1:pos:R:3:forces:R:3 energy=-0.6189125245311028 pbc="F F F"
Li       0.00000000       0.00000000       0.00000000       0.00000000       0.00000000       0.07823573
Li       0.00000000       0.00000000       5.88080808       0.00000000       0.00000000      -0.07823573
2
Properties=species:S:1:pos:R:3:forces:R:3 energy=-0.6155039798831804 pbc="F F F"
Li       0.00000000       0.00000000       0.00000000       0.00000000       0.00000000       0.03697647
Li       0.00000000       0.00000000       5.94040404       0.00000000       0.00000000      -0.03697647
2
Properties=species:S:1:pos:R:3:forces:R:3 energy=-0.6140097834295283 pbc="F F F"
Li       0.00000000       0.00000000       0.00000000       0.00000000       0.00000000       0.01887134
Li       0.00000000       0.00000000       6.00000000       0.00000000       0.00000000      -0.01887134
