2
Properties=species:S:1:pos:R:3:forces:R:3 energy=14597.315772408194 pbc="F F F"
Lu       0.00000000       0.00000000       0.00000000       0.00000000       0.00000000 -244175.39062500
Lu       0.00000000       0.00000000       0.18000000       0.00000000       0.00000000  244175.39062500
2
Properties=species:S:1:pos:R:3:forces:R:3 energy=6050.221045845693 pbc="F F F"
Lu       0.00000000       0.00000000       0.00000000       0.00000000       0.00000000  -81098.25000000
Lu       0.00000000       0.00000000       0.23878788       0.00000000       0.00000000   81098.25000000
2
Properties=species:S:1:pos:R:3:forces:R:3 energy=2986.4776376425684 pbc="F F F"
Lu       0.00000000       0.00000000       0.00000000       0.00000000       0.00000000  -31837.69921875
Lu       0.00000000       0.00000000       0.29757576       0.00000000       0.00000000   31837.69921875
2
Properties=species:S:1:pos:R:3:forces:R:3 energy=1719.415625930154 pbc="F F F"
Lu       0.00000000       0.00000000       0.00000000       0.00000000       0.00000000  -14056.18847656
Lu       0.00000000       0.00000000       0.35636364       0.00000000       0.00000000   14056.18847656
2
Properties=species:S:1:pos:R:3:forces:R:3 energy=1131.3437265160915 pbc="F F F"
Lu       0.00000000       0.00000000       0.00000000       0.00000000       0.00000000   -6986.62646484
Lu       0.00000000       0.00000000       0.41515152       0.00000000       0.00000000    6986.62646484
2
Properties=species:S:1:pos:R:3:forces:R:3 energy=819.207068813919 pbc="F F F"
Lu       0.00000000       0.00000000       0.00000000       0.00000000       0.00000000   -4052.85961914
Lu       0.00000000       0.00000000       0.47393939       0.00000000       0.00000000    4052.85961914
2
Properties=species:S:1:pos:R:3:forces:R:3 energy=622.6772226351841 pbc="F F F"
Lu       0.00000000       0.00000000       0.00000000       0.00000000       0.00000000   -2781.24267578
Lu       0.00000000       0.00000000       0.53272727       0.00000000       0.00000000    2781.24267578
2
Properties=species:S:1:pos:R:3:forces:R:3 energy=458.09049170983104 pbc="F F F"
Lu       0.00000000       0.00000000       0.00000000       0.00000000       0.00000000   -2623.64062500
Lu       0.00000000       0.00000000       0.59151515       0.00000000       0.00000000    2623.64062500
2
Properties=species:S:1:pos:R:3:forces:R:3 energy=319.40149639918803 pbc="F F F"
Lu       0.00000000       0.00000000       0.00000000       0.00000000       0.00000000   -2052.01586914
Lu       0.00000000       0.00000000       0.65030303       0.00000000       0.00000000    2052.01586914
2
Properties=species:S:1:pos:R:3:forces:R:3 energy=219.13106495032545 pbc="F F F"
Lu       0.00000000       0.00000000       0.00000000       0.00000000       0.00000000   -1384.50488281
Lu       0.00000000       0.00000000       0.70909091       0.00000000       0.00000000    1384.50488281
2
Properties=species:S:1:pos:R:3:forces:R:3 energy=153.39258545010924 pbc="F F F"
Lu       0.00000000       0.00000000       0.00000000       0.00000000       0.00000000    -931.62677002
Lu       0.00000000       0.00000000       0.76787879       0.00000000       0.00000000     931.62677002
2
Properties=species:S:1:pos:R:3:forces:R:3 energy=115.26020037360102 pbc="F F F"
Lu       0.00000000       0.00000000       0.00000000       0.00000000       0.00000000    -409.25393677
Lu       0.00000000       0.00000000       0.82666667       0.00000000       0.00000000     409.25393677
2
Properties=species:S:1:pos:R:3:forces:R:3 energy=96.94859325985131 pbc="F F F"
Lu       0.00000000       0.00000000       0.00000000       0.00000000       0.00000000    -235.65707397
Lu       0.00000000       0.00000000       0.88545455       0.00000000       0.00000000     235.65707397
2
Properties=species:S:1:pos:R:3:forces:R:3 energy=86.48465012686644 pbc="F F F"
Lu       0.00000000       0.00000000       0.00000000       0.00000000       0.00000000    -122.62991333
Lu       0.00000000       0.00000000       0.94424242       0.00000000       0.00000000     122.62991333
2
Properties=species:S:1:pos:R:3:forces:R:3 energy=82.33464907616084 pbc="F F F"
Lu       0.00000000       0.00000000       0.00000000       0.00000000       0.00000000     -23.68252373
Lu       0.00000000       0.00000000       1.00303030       0.00000000       0.00000000      23.68252373
2
Properties=species:S:1:pos:R:3:forces:R:3 energy=81.41668096606092 pbc="F F F"
Lu       0.00000000       0.00000000       0.00000000       0.00000000       0.00000000     -51.90245438
Lu       0.00000000       0.00000000       1.06181818       0.00000000       0.00000000      51.90245438
2
Properties=species:S:1:pos:R:3:forces:R:3 energy=71.35270172516948 pbc="F F F"
Lu       0.00000000       0.00000000       0.00000000       0.00000000       0.00000000    -203.36640930
Lu       0.00000000       0.00000000       1.12060606       0.00000000       0.00000000     203.36640930
2
Properties=species:S:1:pos:R:3:forces:R:3 energy=60.445171101961634 pbc="F F F"
Lu       0.00000000       0.00000000       0.00000000       0.00000000       0.00000000    -168.14060974
Lu       0.00000000       0.00000000       1.17939394       0.00000000       0.00000000     168.14060974
2
Properties=species:S:1:pos:R:3:forces:R:3 energy=51.27349591074634 pbc="F F F"
Lu       0.00000000       0.00000000       0.00000000       0.00000000       0.00000000    -146.84356689
Lu       0.00000000       0.00000000       1.23818182       0.00000000       0.00000000     146.84356689
2
Properties=species:S:1:pos:R:3:forces:R:3 energy=43.06009596632089 pbc="F F F"
Lu       0.00000000       0.00000000       0.00000000       0.00000000       0.00000000    -132.01002502
Lu       0.00000000       0.00000000       1.29696970       0.00000000       0.00000000     132.01002502
2
Properties=species:S:1:pos:R:3:forces:R:3 energy=35.86332095408799 pbc="F F F"
Lu       0.00000000       0.00000000       0.00000000       0.00000000       0.00000000    -112.24812317
Lu       0.00000000       0.00000000       1.35575758       0.00000000       0.00000000     112.24812317
2
Properties=species:S:1:pos:R:3:forces:R:3 energy=29.82411833000819 pbc="F F F"
Lu       0.00000000       0.00000000       0.00000000       0.00000000       0.00000000     -94.30794525
Lu       0.00000000       0.00000000       1.41454545       0.00000000       0.00000000      94.30794525
2
Properties=species:S:1:pos:R:3:forces:R:3 energy=24.639469638176806 pbc="F F F"
Lu       0.00000000       0.00000000       0.00000000       0.00000000       0.00000000     -82.78939819
Lu       0.00000000       0.00000000       1.47333333       0.00000000       0.00000000      82.78939819
2
Properties=species:S:1:pos:R:3:forces:R:3 energy=20.08158608647146 pbc="F F F"
Lu       0.00000000       0.00000000       0.00000000       0.00000000       0.00000000     -71.94733429
Lu       0.00000000       0.00000000       1.53212121       0.00000000       0.00000000      71.94733429
2
Properties=species:S:1:pos:R:3:forces:R:3 energy=16.20600029506325 pbc="F F F"
Lu       0.00000000       0.00000000       0.00000000       0.00000000       0.00000000     -59.99055862
Lu       0.00000000       0.00000000       1.59090909       0.00000000       0.00000000      59.99055862
2
Properties=species:S:1:pos:R:3:forces:R:3 energy=12.984315822233608 pbc="F F F"
Lu       0.00000000       0.00000000       0.00000000       0.00000000       0.00000000     -50.11951065
Lu       0.00000000       0.00000000       1.64969697       0.00000000       0.00000000      50.11951065
2
Properties=species:S:1:pos:R:3:forces:R:3 energy=10.263258334590342 pbc="F F F"
Lu       0.00000000       0.00000000       0.00000000       0.00000000       0.00000000     -42.72675705
Lu       0.00000000       0.00000000       1.70848485       0.00000000       0.00000000      42.72675705
2
Properties=species:S:1:pos:R:3:forces:R:3 energy=7.943860514367229 pbc="F F F"
Lu       0.00000000       0.00000000       0.00000000       0.00000000       0.00000000     -36.24604797
Lu       0.00000000       0.00000000       1.76727273       0.00000000       0.00000000      36.24604797
2
Properties=species:S:1:pos:R:3:forces:R:3 energy=5.99466137612896 pbc="F F F"
Lu       0.00000000       0.00000000       0.00000000       0.00000000       0.00000000     -30.14344978
Lu       0.00000000       0.00000000       1.82606061       0.00000000       0.00000000      30.14344978
2
Properties=species:S:1:pos:R:3:forces:R:3 energy=4.388106228789732 pbc="F F F"
Lu       0.00000000       0.00000000       0.00000000       0.00000000       0.00000000     -24.62645531
Lu       0.00000000       0.00000000       1.88484848       0.00000000       0.00000000      24.62645531
2
Properties=species:S:1:pos:R:3:forces:R:3 energy=3.085489550654806 pbc="F F F"
Lu       0.00000000       0.00000000       0.00000000       0.00000000       0.00000000     -19.80320740
Lu       0.00000000       0.00000000       1.94363636       0.00000000       0.00000000      19.80320740
2
Properties=species:S:1:pos:R:3:forces:R:3 energy=2.046918816287475 pbc="F F F"
Lu       0.00000000       0.00000000       0.00000000       0.00000000       0.00000000     -15.63538647
Lu       0.00000000       0.00000000       2.00242424       0.00000000       0.00000000      15.63538647
2
Properties=species:S:1:pos:R:3:forces:R:3 energy=1.2345932656547773 pbc="F F F"
Lu       0.00000000       0.00000000       0.00000000       0.00000000       0.00000000     -12.11155224
Lu       0.00000000       0.00000000       2.06121212       0.00000000       0.00000000      12.11155224
2
Properties=species:S:1:pos:R:3:forces:R:3 energy=0.6090386291998352 pbc="F F F"
Lu       0.00000000       0.00000000       0.00000000       0.00000000       0.00000000      -9.29422951
Lu       0.00000000       0.00000000       2.12000000       0.00000000       0.00000000       9.29422951
2
Properties=species:S:1:pos:R:3:forces:R:3 energy=0.12704239760425884 pbc="F F F"
Lu       0.00000000       0.00000000       0.00000000       0.00000000       0.00000000      -7.22621155
Lu       0.00000000       0.00000000       2.17878788       0.00000000       0.00000000       7.22621155
2
Properties=species:S:1:pos:R:3:forces:R:3 energy=-0.25392685776527263 pbc="F F F"
Lu       0.00000000       0.00000000       0.00000000       0.00000000       0.00000000      -5.83541632
Lu       0.00000000       0.00000000       2.23757576       0.00000000       0.00000000       5.83541632
2
Properties=species:S:1:pos:R:3:forces:R:3 energy=-0.5690652502407093 pbc="F F F"
Lu       0.00000000       0.00000000       0.00000000       0.00000000       0.00000000      -4.95454264
Lu       0.00000000       0.00000000       2.29636364       0.00000000       0.00000000       4.95454264
2
Properties=species:S:1:pos:R:3:forces:R:3 energy=-0.8426619546640438 pbc="F F F"
Lu       0.00000000       0.00000000       0.00000000       0.00000000       0.00000000      -4.39098263
Lu       0.00000000       0.00000000       2.35515152       0.00000000       0.00000000       4.39098263
2
Properties=species:S:1:pos:R:3:forces:R:3 energy=-1.088228157576538 pbc="F F F"
Lu       0.00000000       0.00000000       0.00000000       0.00000000       0.00000000      -3.97668529
Lu       0.00000000       0.00000000       2.41393939       0.00000000       0.00000000       3.97668529
2
Properties=species:S:1:pos:R:3:forces:R:3 energy=-1.3108566162040034 pbc="F F F"
Lu       0.00000000       0.00000000       0.00000000       0.00000000       0.00000000      -3.59687090
Lu       0.00000000       0.00000000       2.47272727       0.00000000       0.00000000       3.59687090
2
Properties=species:S:1:pos:R:3:forces:R:3 energy=-1.510744271372248 pbc="F F F"
Lu       0.00000000       0.00000000       0.00000000       0.00000000       0.00000000      -3.19877625
Lu       0.00000000       0.00000000       2.53151515       0.00000000       0.00000000       3.19877625
2
Properties=species:S:1:pos:R:3:forces:R:3 energy=-1.6864656914165832 pbc="F F F"
Lu       0.00000000       0.00000000       0.00000000       0.00000000       0.00000000      -2.77636600
Lu       0.00000000       0.00000000       2.59030303       0.00000000       0.00000000       2.77636600
2
Properties=species:S:1:pos:R:3:forces:R:3 energy=-1.836986982664099 pbc="F F F"
Lu       0.00000000       0.00000000       0.00000000       0.00000000       0.00000000      -2.34438872
Lu       0.00000000       0.00000000       2.64909091       0.00000000       0.00000000       2.34438872
2
Properties=species:S:1:pos:R:3:forces:R:3 energy=-1.9622599613789595 pbc="F F F"
Lu       0.00000000       0.00000000       0.00000000       0.00000000       0.00000000      -1.91990042
Lu       0.00000000       0.00000000       2.70787879       0.00000000       0.00000000       1.91990042
2
Properties=species:S:1:pos:R:3:forces:R:3 energy=-2.0631161260188384 pbc="F F F"
Lu       0.00000000       0.00000000       0.00000000       0.00000000       0.00000000      -1.51538372
Lu       0.00000000       0.00000000       2.76666667       0.00000000       0.00000000       1.51538372
2
Properties=species:S:1:pos:R:3:forces:R:3 energy=-2.1409730447547535 pbc="F F F"
Lu       0.00000000       0.00000000       0.00000000       0.00000000       0.00000000      -1.13838959
Lu       0.00000000       0.00000000       2.82545455       0.00000000       0.00000000       1.13838959
2
Properties=species:S:1:pos:R:3:forces:R:3 energy=-2.1975806832705977 pbc="F F F"
Lu       0.00000000       0.00000000       0.00000000       0.00000000       0.00000000      -0.79284573
Lu       0.00000000       0.00000000       2.88424242       0.00000000       0.00000000       0.79284573
2
Properties=species:S:1:pos:R:3:forces:R:3 energy=-2.234841520281108 pbc="F F F"
Lu       0.00000000       0.00000000       0.00000000       0.00000000       0.00000000      -0.48034635
Lu       0.00000000       0.00000000       2.94303030       0.00000000       0.00000000       0.48034635
2
Properties=species:S:1:pos:R:3:forces:R:3 energy=-2.254712580502529 pbc="F F F"
Lu       0.00000000       0.00000000       0.00000000       0.00000000       0.00000000      -0.20125209
Lu       0.00000000       0.00000000       3.00181818       0.00000000       0.00000000       0.20125209
2
Properties=species:S:1:pos:R:3:forces:R:3 energy=-2.259160085605384 pbc="F F F"
Lu       0.00000000       0.00000000       0.00000000       0.00000000       0.00000000       0.04437700
Lu       0.00000000       0.00000000       3.06060606       0.00000000       0.00000000      -0.04437700
2
Properties=species:S:1:pos:R:3:forces:R:3 energy=-2.250154323047327 pbc="F F F"
Lu       0.00000000       0.00000000       0.00000000       0.00000000       0.00000000       0.25639787
Lu       0.00000000       0.00000000       3.11939394       0.00000000       0.00000000      -0.25639787
2
Properties=species:S:1:pos:R:3:forces:R:3 energy=-2.2296714243729885 pbc="F F F"
Lu       0.00000000       0.00000000       0.00000000       0.00000000       0.00000000       0.43485638
Lu       0.00000000       0.00000000       3.17818182       0.00000000       0.00000000      -0.43485638
2
Properties=species:S:1:pos:R:3:forces:R:3 energy=-2.1996667810465227 pbc="F F F"
Lu       0.00000000       0.00000000       0.00000000       0.00000000       0.00000000       0.58063829
Lu       0.00000000       0.00000000       3.23696970       0.00000000       0.00000000      -0.58063829
2
Properties=species:S:1:pos:R:3:forces:R:3 energy=-2.1619987434985797 pbc="F F F"
Lu       0.00000000       0.00000000       0.00000000       0.00000000       0.00000000       0.69605953
Lu       0.00000000       0.00000000       3.29575758       0.00000000       0.00000000      -0.69605953
2
Properties=species:S:1:pos:R:3:forces:R:3 energy=-2.118348557505308 pbc="F F F"
Lu       0.00000000       0.00000000       0.00000000       0.00000000       0.00000000       0.78489041
Lu       0.00000000       0.00000000       3.35454545       0.00000000       0.00000000      -0.78489041
2
Properties=species:S:1:pos:R:3:forces:R:3 energy=-2.0701448418475077 pbc="F F F"
Lu       0.00000000       0.00000000       0.00000000       0.00000000       0.00000000       0.85176772
Lu       0.00000000       0.00000000       3.41333333       0.00000000       0.00000000      -0.85176772
2
Properties=species:S:1:pos:R:3:forces:R:3 energy=-2.018540580421866 pbc="F F F"
Lu       0.00000000       0.00000000       0.00000000       0.00000000       0.00000000       0.90126449
Lu       0.00000000       0.00000000       3.47212121       0.00000000       0.00000000      -0.90126449
2
Properties=species:S:1:pos:R:3:forces:R:3 energy=-1.964446138542352 pbc="F F F"
Lu       0.00000000       0.00000000       0.00000000       0.00000000       0.00000000       0.93702310
Lu       0.00000000       0.00000000       3.53090909       0.00000000       0.00000000      -0.93702310
2
Properties=species:S:1:pos:R:3:forces:R:3 energy=-1.908593024407051 pbc="F F F"
Lu       0.00000000       0.00000000       0.00000000       0.00000000       0.00000000       0.96134877
Lu       0.00000000       0.00000000       3.58969697       0.00000000       0.00000000      -0.96134877
2
Properties=species:S:1:pos:R:3:forces:R:3 energy=-1.8516171403638282 pbc="F F F"
Lu       0.00000000       0.00000000       0.00000000       0.00000000       0.00000000       0.97529656
Lu       0.00000000       0.00000000       3.64848485       0.00000000       0.00000000      -0.97529656
2
Properties=species:S:1:pos:R:3:forces:R:3 energy=-1.7941201503518707 pbc="F F F"
Lu       0.00000000       0.00000000       0.00000000       0.00000000       0.00000000       0.97913748
Lu       0.00000000       0.00000000       3.70727273       0.00000000       0.00000000      -0.97913748
2
Properties=species:S:1:pos:R:3:forces:R:3 energy=-1.7366896262716216 pbc="F F F"
Lu       0.00000000       0.00000000       0.00000000       0.00000000       0.00000000       0.97300071
Lu       0.00000000       0.00000000       3.76606061       0.00000000       0.00000000      -0.97300071
2
Properties=species:S:1:pos:R:3:forces:R:3 energy=-1.6799045644582726 pbc="F F F"
Lu       0.00000000       0.00000000       0.00000000       0.00000000       0.00000000       0.95740336
Lu       0.00000000       0.00000000       3.82484848       0.00000000       0.00000000      -0.95740336
2
Properties=species:S:1:pos:R:3:forces:R:3 energy=-1.624285586709001 pbc="F F F"
Lu       0.00000000       0.00000000       0.00000000       0.00000000       0.00000000       0.93352968
Lu       0.00000000       0.00000000       3.88363636       0.00000000       0.00000000      -0.93352968
2
Properties=species:S:1:pos:R:3:forces:R:3 energy=-1.570269888493184 pbc="F F F"
Lu       0.00000000       0.00000000       0.00000000       0.00000000       0.00000000       0.90323341
Lu       0.00000000       0.00000000       3.94242424       0.00000000       0.00000000      -0.90323341
2
Properties=species:S:1:pos:R:3:forces:R:3 energy=-1.5181700052095022 pbc="F F F"
Lu       0.00000000       0.00000000       0.00000000       0.00000000       0.00000000       0.86876565
Lu       0.00000000       0.00000000       4.00121212       0.00000000       0.00000000      -0.86876565
2
Properties=species:S:1:pos:R:3:forces:R:3 energy=-1.4681608817298208 pbc="F F F"
Lu       0.00000000       0.00000000       0.00000000       0.00000000       0.00000000       0.83242244
Lu       0.00000000       0.00000000       4.06000000       0.00000000       0.00000000      -0.83242244
2
Properties=species:S:1:pos:R:3:forces:R:3 energy=-1.4202939644379358 pbc="F F F"
Lu       0.00000000       0.00000000       0.00000000       0.00000000       0.00000000       0.79620802
Lu       0.00000000       0.00000000       4.11878788       0.00000000       0.00000000      -0.79620802
2
Properties=species:S:1:pos:R:3:forces:R:3 energy=-1.3745137839921076 pbc="F F F"
Lu       0.00000000       0.00000000       0.00000000       0.00000000       0.00000000       0.76161885
Lu       0.00000000       0.00000000       4.17757576       0.00000000       0.00000000      -0.76161885
2
Properties=species:S:1:pos:R:3:forces:R:3 energy=-1.3306958713827368 pbc="F F F"
Lu       0.00000000       0.00000000       0.00000000       0.00000000       0.00000000       0.72953862
Lu       0.00000000       0.00000000       4.23636364       0.00000000       0.00000000      -0.72953862
2
Properties=species:S:1:pos:R:3:forces:R:3 energy=-1.2886815036884685 pbc="F F F"
Lu       0.00000000       0.00000000       0.00000000       0.00000000       0.00000000       0.70027488
Lu       0.00000000       0.00000000       4.29515152       0.00000000       0.00000000      -0.70027488
2
Properties=species:S:1:pos:R:3:forces:R:3 energy=-1.2483086438065816 pbc="F F F"
Lu       0.00000000       0.00000000       0.00000000       0.00000000       0.00000000       0.67367715
Lu       0.00000000       0.00000000       4.35393939       0.00000000       0.00000000      -0.67367715
2
Properties=species:S:1:pos:R:3:forces:R:3 energy=-1.209431251189944 pbc="F F F"
Lu       0.00000000       0.00000000       0.00000000       0.00000000       0.00000000       0.64926666
Lu       0.00000000       0.00000000       4.41272727       0.00000000       0.00000000      -0.64926666
2
Properties=species:S:1:pos:R:3:forces:R:3 energy=-1.171939793348412 pbc="F F F"
Lu       0.00000000       0.00000000       0.00000000       0.00000000       0.00000000       0.62640369
Lu       0.00000000       0.00000000       4.47151515       0.00000000       0.00000000      -0.62640369
2
Properties=species:S:1:pos:R:3:forces:R:3 energy=-1.1357638937957764 pbc="F F F"
Lu       0.00000000       0.00000000       0.00000000       0.00000000       0.00000000       0.60439879
Lu       0.00000000       0.00000000       4.53030303       0.00000000       0.00000000      -0.60439879
2
Properties=species:S:1:pos:R:3:forces:R:3 energy=-1.1008731601791466 pbc="F F F"
Lu       0.00000000       0.00000000       0.00000000       0.00000000       0.00000000       0.58261001
Lu       0.00000000       0.00000000       4.58909091       0.00000000       0.00000000      -0.58261001
2
Properties=species:S:1:pos:R:3:forces:R:3 energy=-1.067270608761091 pbc="F F F"
Lu       0.00000000       0.00000000       0.00000000       0.00000000       0.00000000       0.56049174
Lu       0.00000000       0.00000000       4.64787879       0.00000000       0.00000000      -0.56049174
2
Properties=species:S:1:pos:R:3:forces:R:3 energy=-1.0349878655377873 pbc="F F F"
Lu       0.00000000       0.00000000       0.00000000       0.00000000       0.00000000       0.53759909
Lu       0.00000000       0.00000000       4.70666667       0.00000000       0.00000000      -0.53759909
2
Properties=species:S:1:pos:R:3:forces:R:3 energy=-1.0040830256395004 pbc="F F F"
Lu       0.00000000       0.00000000       0.00000000       0.00000000       0.00000000       0.51362276
Lu       0.00000000       0.00000000       4.76545455       0.00000000       0.00000000      -0.51362276
2
Properties=species:S:1:pos:R:3:forces:R:3 energy=-0.9746219754859912 pbc="F F F"
Lu       0.00000000       0.00000000       0.00000000       0.00000000       0.00000000       0.48841926
Lu       0.00000000       0.00000000       4.82424242       0.00000000       0.00000000      -0.48841926
2
Properties=species:S:1:pos:R:3:forces:R:3 energy=-0.9466816393637559 pbc="F F F"
Lu       0.00000000       0.00000000       0.00000000       0.00000000       0.00000000       0.46203730
Lu       0.00000000       0.00000000       4.88303030       0.00000000       0.00000000      -0.46203730
2
Properties=species:S:1:pos:R:3:forces:R:3 energy=-0.9203147988463692 pbc="F F F"
Lu       0.00000000       0.00000000       0.00000000       0.00000000       0.00000000       0.43482506
Lu       0.00000000       0.00000000       4.94181818       0.00000000       0.00000000      -0.43482506
2
Properties=species:S:1:pos:R:3:forces:R:3 energy=-0.8955575623820129 pbc="F F F"
Lu       0.00000000       0.00000000       0.00000000       0.00000000       0.00000000       0.40745145
Lu       0.00000000       0.00000000       5.00060606       0.00000000       0.00000000      -0.40745145
2
Properties=species:S:1:pos:R:3:forces:R:3 energy=-0.872392366064206 pbc="F F F"
Lu       0.00000000       0.00000000       0.00000000       0.00000000       0.00000000       0.38084868
Lu       0.00000000       0.00000000       5.05939394       0.00000000       0.00000000      -0.38084868
2
Properties=species:S:1:pos:R:3:forces:R:3 energy=-0.8507441603504329 pbc="F F F"
Lu       0.00000000       0.00000000       0.00000000       0.00000000       0.00000000       0.35599431
Lu       0.00000000       0.00000000       5.11818182       0.00000000       0.00000000      -0.35599431
2
Properties=species:S:1:pos:R:3:forces:R:3 energy=-0.8304906620610444 pbc="F F F"
Lu       0.00000000       0.00000000       0.00000000       0.00000000       0.00000000       0.33348581
Lu       0.00000000       0.00000000       5.17696970       0.00000000       0.00000000      -0.33348581
2
Properties=species:S:1:pos:R:3:forces:R:3 energy=-0.8114966823188744 pbc="F F F"
Lu       0.00000000       0.00000000       0.00000000       0.00000000       0.00000000       0.31294358
Lu       0.00000000       0.00000000       5.23575758       0.00000000       0.00000000      -0.31294358
2
Properties=species:S:1:pos:R:3:forces:R:3 energy=-0.7936956086824942 pbc="F F F"
Lu       0.00000000       0.00000000       0.00000000       0.00000000       0.00000000       0.29245204
Lu       0.00000000       0.00000000       5.29454545       0.00000000       0.00000000      -0.29245204
2
Properties=species:S:1:pos:R:3:forces:R:3 energy=-0.777160619441454 pbc="F F F"
Lu       0.00000000       0.00000000       0.00000000       0.00000000       0.00000000       0.26954678
Lu       0.00000000       0.00000000       5.35333333       0.00000000       0.00000000      -0.26954678
2
Properties=species:S:1:pos:R:3:forces:R:3 energy=-0.7620206335635533 pbc="F F F"
Lu       0.00000000       0.00000000       0.00000000       0.00000000       0.00000000       0.24598458
Lu       0.00000000       0.00000000       5.41212121       0.00000000       0.00000000      -0.24598458
2
Properties=species:S:1:pos:R:3:forces:R:3 energy=-0.7480835307282834 pbc="F F F"
Lu       0.00000000       0.00000000       0.00000000       0.00000000       0.00000000       0.22998349
Lu       0.00000000       0.00000000       5.47090909       0.00000000       0.00000000      -0.22998349
2
Properties=species:S:1:pos:R:3:forces:R:3 energy=-0.7348508071498209 pbc="F F F"
Lu       0.00000000       0.00000000       0.00000000       0.00000000       0.00000000       0.21984045
Lu       0.00000000       0.00000000       5.52969697       0.00000000       0.00000000      -0.21984045
2
Properties=species:S:1:pos:R:3:forces:R:3 energy=-0.7224365213923332 pbc="F F F"
Lu       0.00000000       0.00000000       0.00000000       0.00000000       0.00000000       0.20023851
Lu       0.00000000       0.00000000       5.58848485       0.00000000       0.00000000      -0.20023851
2
Properties=species:S:1:pos:R:3:forces:R:3 energy=-0.7114870138330869 pbc="F F F"
Lu       0.00000000       0.00000000       0.00000000       0.00000000       0.00000000       0.17215575
Lu       0.00000000       0.00000000       5.64727273       0.00000000       0.00000000      -0.17215575
2
Properties=species:S:1:pos:R:3:forces:R:3 energy=-0.7019802637922069 pbc="F F F"
Lu       0.00000000       0.00000000       0.00000000       0.00000000       0.00000000       0.15512916
Lu       0.00000000       0.00000000       5.70606061       0.00000000       0.00000000      -0.15512916
2
Properties=species:S:1:pos:R:3:forces:R:3 energy=-0.6927470511591292 pbc="F F F"
Lu       0.00000000       0.00000000       0.00000000       0.00000000       0.00000000       0.16095395
Lu       0.00000000       0.00000000       5.76484848       0.00000000       0.00000000      -0.16095395
2
Properties=species:S:1:pos:R:3:forces:R:3 energy=-0.6832857649386294 pbc="F F F"
Lu       0.00000000       0.00000000       0.00000000       0.00000000       0.00000000       0.15507686
Lu       0.00000000       0.00000000       5.82363636       0.00000000       0.00000000      -0.15507686
2
Properties=species:S:1:pos:R:3:forces:R:3 energy=-0.6754284172606563 pbc="F F F"
Lu       0.00000000       0.00000000       0.00000000       0.00000000       0.00000000       0.10672101
Lu       0.00000000       0.00000000       5.88242424       0.00000000       0.00000000      -0.10672101
2
Properties=species:S:1:pos:R:3:forces:R:3 energy=-0.6709352179129495 pbc="F F F"
Lu       0.00000000       0.00000000       0.00000000       0.00000000       0.00000000       0.04817387
Lu       0.00000000       0.00000000       5.94121212       0.00000000       0.00000000      -0.04817387
2
Properties=species:S:1:pos:R:3:forces:R:3 energy=-0.6690739320982 pbc="F F F"
Lu       0.00000000       0.00000000       0.00000000       0.00000000       0.00000000       0.02315903
Lu       0.00000000       0.00000000       6.00000000       0.00000000       0.00000000      -0.02315903
