2
Properties=species:S:1:pos:R:3:forces:R:3 energy=1433.3784275517587 pbc="F F F"
Mg       0.00000000       0.00000000       0.00000000       0.00000000       0.00000000  -15194.28808594
Mg       0.00000000       0.00000000       0.18000000       0.00000000       0.00000000   15194.28808594
2
Properties=species:S:1:pos:R:3:forces:R:3 energy=861.8256321416026 pbc="F F F"
Mg       0.00000000       0.00000000       0.00000000       0.00000000       0.00000000   -5984.01367188
Mg       0.00000000       0.00000000       0.23878788       0.00000000       0.00000000    5984.01367188
2
Properties=species:S:1:pos:R:3:forces:R:3 energy=617.8122654423838 pbc="F F F"
Mg       0.00000000       0.00000000       0.00000000       0.00000000       0.00000000   -2827.46411133
Mg       0.00000000       0.00000000       0.29757576       0.00000000       0.00000000    2827.46411133
2
Properties=species:S:1:pos:R:3:forces:R:3 energy=492.91266828075067 pbc="F F F"
Mg       0.00000000       0.00000000       0.00000000       0.00000000       0.00000000   -1607.53332520
Mg       0.00000000       0.00000000       0.35636364       0.00000000       0.00000000    1607.53332520
2
Properties=species:S:1:pos:R:3:forces:R:3 energy=414.4708958324845 pbc="F F F"
Mg       0.00000000       0.00000000       0.00000000       0.00000000       0.00000000   -1139.96398926
Mg       0.00000000       0.00000000       0.41515152       0.00000000       0.00000000    1139.96398926
2
Properties=species:S:1:pos:R:3:forces:R:3 energy=352.6117039569601 pbc="F F F"
Mg       0.00000000       0.00000000       0.00000000       0.00000000       0.00000000    -998.76428223
Mg       0.00000000       0.00000000       0.47393939       0.00000000       0.00000000     998.76428223
2
Properties=species:S:1:pos:R:3:forces:R:3 energy=294.60700430061405 pbc="F F F"
Mg       0.00000000       0.00000000       0.00000000       0.00000000       0.00000000    -983.92407227
Mg       0.00000000       0.00000000       0.53272727       0.00000000       0.00000000     983.92407227
2
Properties=species:S:1:pos:R:3:forces:R:3 energy=236.86573240398553 pbc="F F F"
Mg       0.00000000       0.00000000       0.00000000       0.00000000       0.00000000    -973.75756836
Mg       0.00000000       0.00000000       0.59151515       0.00000000       0.00000000     973.75756836
2
Properties=species:S:1:pos:R:3:forces:R:3 energy=181.38245616984656 pbc="F F F"
Mg       0.00000000       0.00000000       0.00000000       0.00000000       0.00000000    -901.63549805
Mg       0.00000000       0.00000000       0.65030303       0.00000000       0.00000000     901.63549805
2
Properties=species:S:1:pos:R:3:forces:R:3 energy=132.10013826368845 pbc="F F F"
Mg       0.00000000       0.00000000       0.00000000       0.00000000       0.00000000    -764.32238770
Mg       0.00000000       0.00000000       0.70909091       0.00000000       0.00000000     764.32238770
2
Properties=species:S:1:pos:R:3:forces:R:3 energy=93.6925076600605 pbc="F F F"
Mg       0.00000000       0.00000000       0.00000000       0.00000000       0.00000000    -521.24200439
Mg       0.00000000       0.00000000       0.76787879       0.00000000       0.00000000     521.24200439
2
Properties=species:S:1:pos:R:3:forces:R:3 energy=70.16209734962533 pbc="F F F"
Mg       0.00000000       0.00000000       0.00000000       0.00000000       0.00000000    -310.96060181
Mg       0.00000000       0.00000000       0.82666667       0.00000000       0.00000000     310.96060181
2
Properties=species:S:1:pos:R:3:forces:R:3 energy=54.94700249484845 pbc="F F F"
Mg       0.00000000       0.00000000       0.00000000       0.00000000       0.00000000    -220.25631714
Mg       0.00000000       0.00000000       0.88545455       0.00000000       0.00000000     220.25631714
2
Properties=species:S:1:pos:R:3:forces:R:3 energy=43.48556619451072 pbc="F F F"
Mg       0.00000000       0.00000000       0.00000000       0.00000000       0.00000000    -171.46705627
Mg       0.00000000       0.00000000       0.94424242       0.00000000       0.00000000     171.46705627
2
Properties=species:S:1:pos:R:3:forces:R:3 energy=34.7298263549261 pbc="F F F"
Mg       0.00000000       0.00000000       0.00000000       0.00000000       0.00000000    -126.87785339
Mg       0.00000000       0.00000000       1.00303030       0.00000000       0.00000000     126.87785339
2
Properties=species:S:1:pos:R:3:forces:R:3 energy=28.42219563826793 pbc="F F F"
Mg       0.00000000       0.00000000       0.00000000       0.00000000       0.00000000     -89.62287140
Mg       0.00000000       0.00000000       1.06181818       0.00000000       0.00000000      89.62287140
2
Properties=species:S:1:pos:R:3:forces:R:3 energy=23.95108281313083 pbc="F F F"
Mg       0.00000000       0.00000000       0.00000000       0.00000000       0.00000000     -64.44862366
Mg       0.00000000       0.00000000       1.12060606       0.00000000       0.00000000      64.44862366
2
Properties=species:S:1:pos:R:3:forces:R:3 energy=20.631046060745078 pbc="F F F"
Mg       0.00000000       0.00000000       0.00000000       0.00000000       0.00000000     -50.16901398
Mg       0.00000000       0.00000000       1.17939394       0.00000000       0.00000000      50.16901398
2
Properties=species:S:1:pos:R:3:forces:R:3 energy=17.886298961596886 pbc="F F F"
Mg       0.00000000       0.00000000       0.00000000       0.00000000       0.00000000     -44.21343231
Mg       0.00000000       0.00000000       1.23818182       0.00000000       0.00000000      44.21343231
2
Properties=species:S:1:pos:R:3:forces:R:3 energy=15.386272444818283 pbc="F F F"
Mg       0.00000000       0.00000000       0.00000000       0.00000000       0.00000000     -40.67913437
Mg       0.00000000       0.00000000       1.29696970       0.00000000       0.00000000      40.67913437
2
Properties=species:S:1:pos:R:3:forces:R:3 energy=13.140724746769223 pbc="F F F"
Mg       0.00000000       0.00000000       0.00000000       0.00000000       0.00000000     -35.49229050
Mg       0.00000000       0.00000000       1.35575758       0.00000000       0.00000000      35.49229050
2
Properties=species:S:1:pos:R:3:forces:R:3 energy=11.216974096193248 pbc="F F F"
Mg       0.00000000       0.00000000       0.00000000       0.00000000       0.00000000     -30.05899048
Mg       0.00000000       0.00000000       1.41454545       0.00000000       0.00000000      30.05899048
2
Properties=species:S:1:pos:R:3:forces:R:3 energy=9.589064662338588 pbc="F F F"
Mg       0.00000000       0.00000000       0.00000000       0.00000000       0.00000000     -25.47987938
Mg       0.00000000       0.00000000       1.47333333       0.00000000       0.00000000      25.47987938
2
Properties=species:S:1:pos:R:3:forces:R:3 energy=8.204576183851422 pbc="F F F"
Mg       0.00000000       0.00000000       0.00000000       0.00000000       0.00000000     -21.74368477
Mg       0.00000000       0.00000000       1.53212121       0.00000000       0.00000000      21.74368477
2
Properties=species:S:1:pos:R:3:forces:R:3 energy=7.01979837026611 pbc="F F F"
Mg       0.00000000       0.00000000       0.00000000       0.00000000       0.00000000     -18.66330528
Mg       0.00000000       0.00000000       1.59090909       0.00000000       0.00000000      18.66330528
2
Properties=species:S:1:pos:R:3:forces:R:3 energy=5.999034230245769 pbc="F F F"
Mg       0.00000000       0.00000000       0.00000000       0.00000000       0.00000000     -16.15124130
Mg       0.00000000       0.00000000       1.64969697       0.00000000       0.00000000      16.15124130
2
Properties=species:S:1:pos:R:3:forces:R:3 energy=5.112005155445554 pbc="F F F"
Mg       0.00000000       0.00000000       0.00000000       0.00000000       0.00000000     -14.08737469
Mg       0.00000000       0.00000000       1.70848485       0.00000000       0.00000000      14.08737469
2
Properties=species:S:1:pos:R:3:forces:R:3 energy=4.336776265793081 pbc="F F F"
Mg       0.00000000       0.00000000       0.00000000       0.00000000       0.00000000     -12.32878113
Mg       0.00000000       0.00000000       1.76727273       0.00000000       0.00000000      12.32878113
2
Properties=species:S:1:pos:R:3:forces:R:3 energy=3.6580548984527517 pbc="F F F"
Mg       0.00000000       0.00000000       0.00000000       0.00000000       0.00000000     -10.79437542
Mg       0.00000000       0.00000000       1.82606061       0.00000000       0.00000000      10.79437542
2
Properties=species:S:1:pos:R:3:forces:R:3 energy=3.0642107763964144 pbc="F F F"
Mg       0.00000000       0.00000000       0.00000000       0.00000000       0.00000000      -9.43476391
Mg       0.00000000       0.00000000       1.88484848       0.00000000       0.00000000       9.43476391
2
Properties=species:S:1:pos:R:3:forces:R:3 energy=2.5458779852119524 pbc="F F F"
Mg       0.00000000       0.00000000       0.00000000       0.00000000       0.00000000      -8.22270203
Mg       0.00000000       0.00000000       1.94363636       0.00000000       0.00000000       8.22270203
2
Properties=species:S:1:pos:R:3:forces:R:3 energy=2.094770226834221 pbc="F F F"
Mg       0.00000000       0.00000000       0.00000000       0.00000000       0.00000000      -7.14581299
Mg       0.00000000       0.00000000       2.00242424       0.00000000       0.00000000       7.14581299
2
Properties=species:S:1:pos:R:3:forces:R:3 energy=1.7033189128132575 pbc="F F F"
Mg       0.00000000       0.00000000       0.00000000       0.00000000       0.00000000      -6.19043112
Mg       0.00000000       0.00000000       2.06121212       0.00000000       0.00000000       6.19043112
2
Properties=species:S:1:pos:R:3:forces:R:3 energy=1.3648589355689604 pbc="F F F"
Mg       0.00000000       0.00000000       0.00000000       0.00000000       0.00000000      -5.34060478
Mg       0.00000000       0.00000000       2.12000000       0.00000000       0.00000000       5.34060478
2
Properties=species:S:1:pos:R:3:forces:R:3 energy=1.0735812674433578 pbc="F F F"
Mg       0.00000000       0.00000000       0.00000000       0.00000000       0.00000000      -4.58344221
Mg       0.00000000       0.00000000       2.17878788       0.00000000       0.00000000       4.58344221
2
Properties=species:S:1:pos:R:3:forces:R:3 energy=0.8242963570193216 pbc="F F F"
Mg       0.00000000       0.00000000       0.00000000       0.00000000       0.00000000      -3.91104507
Mg       0.00000000       0.00000000       2.23757576       0.00000000       0.00000000       3.91104507
2
Properties=species:S:1:pos:R:3:forces:R:3 energy=0.6121745877384824 pbc="F F F"
Mg       0.00000000       0.00000000       0.00000000       0.00000000       0.00000000      -3.31833482
Mg       0.00000000       0.00000000       2.29636364       0.00000000       0.00000000       3.31833482
2
Properties=species:S:1:pos:R:3:forces:R:3 energy=0.43268377492758797 pbc="F F F"
Mg       0.00000000       0.00000000       0.00000000       0.00000000       0.00000000      -2.79994082
Mg       0.00000000       0.00000000       2.35515152       0.00000000       0.00000000       2.79994082
2
Properties=species:S:1:pos:R:3:forces:R:3 energy=0.2816512372403862 pbc="F F F"
Mg       0.00000000       0.00000000       0.00000000       0.00000000       0.00000000      -2.34883571
Mg       0.00000000       0.00000000       2.41393939       0.00000000       0.00000000       2.34883571
2
Properties=species:S:1:pos:R:3:forces:R:3 energy=0.15535477224645444 pbc="F F F"
Mg       0.00000000       0.00000000       0.00000000       0.00000000       0.00000000      -1.95710385
Mg       0.00000000       0.00000000       2.47272727       0.00000000       0.00000000       1.95710385
2
Properties=species:S:1:pos:R:3:forces:R:3 energy=0.05052698399755797 pbc="F F F"
Mg       0.00000000       0.00000000       0.00000000       0.00000000       0.00000000      -1.61731017
Mg       0.00000000       0.00000000       2.53151515       0.00000000       0.00000000       1.61731017
2
Properties=species:S:1:pos:R:3:forces:R:3 energy=-0.03569813551138848 pbc="F F F"
Mg       0.00000000       0.00000000       0.00000000       0.00000000       0.00000000      -1.32329834
Mg       0.00000000       0.00000000       2.59030303       0.00000000       0.00000000       1.32329834
2
Properties=species:S:1:pos:R:3:forces:R:3 energy=-0.10586052365965981 pbc="F F F"
Mg       0.00000000       0.00000000       0.00000000       0.00000000       0.00000000      -1.07009828
Mg       0.00000000       0.00000000       2.64909091       0.00000000       0.00000000       1.07009828
2
Properties=species:S:1:pos:R:3:forces:R:3 energy=-0.16223170409407733 pbc="F F F"
Mg       0.00000000       0.00000000       0.00000000       0.00000000       0.00000000      -0.85341024
Mg       0.00000000       0.00000000       2.70787879       0.00000000       0.00000000       0.85341024
2
Properties=species:S:1:pos:R:3:forces:R:3 energy=-0.20683673107778663 pbc="F F F"
Mg       0.00000000       0.00000000       0.00000000       0.00000000       0.00000000      -0.66917771
Mg       0.00000000       0.00000000       2.76666667       0.00000000       0.00000000       0.66917771
2
Properties=species:S:1:pos:R:3:forces:R:3 energy=-0.24146933494566983 pbc="F F F"
Mg       0.00000000       0.00000000       0.00000000       0.00000000       0.00000000      -0.51346958
Mg       0.00000000       0.00000000       2.82545455       0.00000000       0.00000000       0.51346958
2
Properties=species:S:1:pos:R:3:forces:R:3 energy=-0.2676949607545349 pbc="F F F"
Mg       0.00000000       0.00000000       0.00000000       0.00000000       0.00000000      -0.38261229
Mg       0.00000000       0.00000000       2.88424242       0.00000000       0.00000000       0.38261229
2
Properties=species:S:1:pos:R:3:forces:R:3 energy=-0.28687932401942956 pbc="F F F"
Mg       0.00000000       0.00000000       0.00000000       0.00000000       0.00000000      -0.27343372
Mg       0.00000000       0.00000000       2.94303030       0.00000000       0.00000000       0.27343372
2
Properties=species:S:1:pos:R:3:forces:R:3 energy=-0.3002200746829895 pbc="F F F"
Mg       0.00000000       0.00000000       0.00000000       0.00000000       0.00000000      -0.18347616
Mg       0.00000000       0.00000000       3.00181818       0.00000000       0.00000000       0.18347616
2
Properties=species:S:1:pos:R:3:forces:R:3 energy=-0.3087961226719058 pbc="F F F"
Mg       0.00000000       0.00000000       0.00000000       0.00000000       0.00000000      -0.11112517
Mg       0.00000000       0.00000000       3.06060606       0.00000000       0.00000000       0.11112517
2
Properties=species:S:1:pos:R:3:forces:R:3 energy=-0.313613407418138 pbc="F F F"
Mg       0.00000000       0.00000000       0.00000000       0.00000000       0.00000000      -0.05548279
Mg       0.00000000       0.00000000       3.11939394       0.00000000       0.00000000       0.05548279
2
Properties=species:S:1:pos:R:3:forces:R:3 energy=-0.315629225152168 pbc="F F F"
Mg       0.00000000       0.00000000       0.00000000       0.00000000       0.00000000      -0.01557215
Mg       0.00000000       0.00000000       3.17818182       0.00000000       0.00000000       0.01557215
2
Properties=species:S:1:pos:R:3:forces:R:3 energy=-0.31569590443292483 pbc="F F F"
Mg       0.00000000       0.00000000       0.00000000       0.00000000       0.00000000       0.01164486
Mg       0.00000000       0.00000000       3.23696970       0.00000000       0.00000000      -0.01164486
2
Properties=species:S:1:pos:R:3:forces:R:3 energy=-0.3143722962436822 pbc="F F F"
Mg       0.00000000       0.00000000       0.00000000       0.00000000       0.00000000       0.03322324
Mg       0.00000000       0.00000000       3.29575758       0.00000000       0.00000000      -0.03322324
2
Properties=species:S:1:pos:R:3:forces:R:3 energy=-0.31173010453598965 pbc="F F F"
Mg       0.00000000       0.00000000       0.00000000       0.00000000       0.00000000       0.05761516
Mg       0.00000000       0.00000000       3.35454545       0.00000000       0.00000000      -0.05761516
2
Properties=species:S:1:pos:R:3:forces:R:3 energy=-0.30748756461481785 pbc="F F F"
Mg       0.00000000       0.00000000       0.00000000       0.00000000       0.00000000       0.08734645
Mg       0.00000000       0.00000000       3.41333333       0.00000000       0.00000000      -0.08734645
2
Properties=species:S:1:pos:R:3:forces:R:3 energy=-0.30144903941518314 pbc="F F F"
Mg       0.00000000       0.00000000       0.00000000       0.00000000       0.00000000       0.11764387
Mg       0.00000000       0.00000000       3.47212121       0.00000000       0.00000000      -0.11764387
2
Properties=species:S:1:pos:R:3:forces:R:3 energy=-0.29375404508574343 pbc="F F F"
Mg       0.00000000       0.00000000       0.00000000       0.00000000       0.00000000       0.14305867
Mg       0.00000000       0.00000000       3.53090909       0.00000000       0.00000000      -0.14305867
2
Properties=species:S:1:pos:R:3:forces:R:3 energy=-0.28476516003090446 pbc="F F F"
Mg       0.00000000       0.00000000       0.00000000       0.00000000       0.00000000       0.16160998
Mg       0.00000000       0.00000000       3.58969697       0.00000000       0.00000000      -0.16160998
2
Properties=species:S:1:pos:R:3:forces:R:3 energy=-0.2748751022810738 pbc="F F F"
Mg       0.00000000       0.00000000       0.00000000       0.00000000       0.00000000       0.17392382
Mg       0.00000000       0.00000000       3.64848485       0.00000000       0.00000000      -0.17392382
2
Properties=species:S:1:pos:R:3:forces:R:3 energy=-0.26441020411500227 pbc="F F F"
Mg       0.00000000       0.00000000       0.00000000       0.00000000       0.00000000       0.18142891
Mg       0.00000000       0.00000000       3.70727273       0.00000000       0.00000000      -0.18142891
2
Properties=species:S:1:pos:R:3:forces:R:3 energy=-0.25361133412655185 pbc="F F F"
Mg       0.00000000       0.00000000       0.00000000       0.00000000       0.00000000       0.18546161
Mg       0.00000000       0.00000000       3.76606061       0.00000000       0.00000000      -0.18546161
2
Properties=species:S:1:pos:R:3:forces:R:3 energy=-0.24265199735128584 pbc="F F F"
Mg       0.00000000       0.00000000       0.00000000       0.00000000       0.00000000       0.18704659
Mg       0.00000000       0.00000000       3.82484848       0.00000000       0.00000000      -0.18704659
2
Properties=species:S:1:pos:R:3:forces:R:3 energy=-0.2316526600521904 pbc="F F F"
Mg       0.00000000       0.00000000       0.00000000       0.00000000       0.00000000       0.18691847
Mg       0.00000000       0.00000000       3.88363636       0.00000000       0.00000000      -0.18691847
2
Properties=species:S:1:pos:R:3:forces:R:3 energy=-0.22069843116197835 pbc="F F F"
Mg       0.00000000       0.00000000       0.00000000       0.00000000       0.00000000       0.18558523
Mg       0.00000000       0.00000000       3.94242424       0.00000000       0.00000000      -0.18558523
2
Properties=species:S:1:pos:R:3:forces:R:3 energy=-0.20984941557733122 pbc="F F F"
Mg       0.00000000       0.00000000       0.00000000       0.00000000       0.00000000       0.18338123
Mg       0.00000000       0.00000000       4.00121212       0.00000000       0.00000000      -0.18338123
2
Properties=species:S:1:pos:R:3:forces:R:3 energy=-0.19915038904492297 pbc="F F F"
Mg       0.00000000       0.00000000       0.00000000       0.00000000       0.00000000       0.18050244
Mg       0.00000000       0.00000000       4.06000000       0.00000000       0.00000000      -0.18050244
2
Properties=species:S:1:pos:R:3:forces:R:3 energy=-0.1886380344964577 pbc="F F F"
Mg       0.00000000       0.00000000       0.00000000       0.00000000       0.00000000       0.17704557
Mg       0.00000000       0.00000000       4.11878788       0.00000000       0.00000000      -0.17704557
2
Properties=species:S:1:pos:R:3:forces:R:3 energy=-0.1783449137913013 pbc="F F F"
Mg       0.00000000       0.00000000       0.00000000       0.00000000       0.00000000       0.17303538
Mg       0.00000000       0.00000000       4.17757576       0.00000000       0.00000000      -0.17303538
2
Properties=species:S:1:pos:R:3:forces:R:3 energy=-0.1683042230269225 pbc="F F F"
Mg       0.00000000       0.00000000       0.00000000       0.00000000       0.00000000       0.16845948
Mg       0.00000000       0.00000000       4.23636364       0.00000000       0.00000000      -0.16845948
2
Properties=species:S:1:pos:R:3:forces:R:3 energy=-0.15854952559197508 pbc="F F F"
Mg       0.00000000       0.00000000       0.00000000       0.00000000       0.00000000       0.16329846
Mg       0.00000000       0.00000000       4.29515152       0.00000000       0.00000000      -0.16329846
2
Properties=species:S:1:pos:R:3:forces:R:3 energy=-0.14911586129390184 pbc="F F F"
Mg       0.00000000       0.00000000       0.00000000       0.00000000       0.00000000       0.15755028
Mg       0.00000000       0.00000000       4.35393939       0.00000000       0.00000000      -0.15755028
2
Properties=species:S:1:pos:R:3:forces:R:3 energy=-0.14003659846212474 pbc="F F F"
Mg       0.00000000       0.00000000       0.00000000       0.00000000       0.00000000       0.15124248
Mg       0.00000000       0.00000000       4.41272727       0.00000000       0.00000000      -0.15124248
2
Properties=species:S:1:pos:R:3:forces:R:3 energy=-0.13134311116621972 pbc="F F F"
Mg       0.00000000       0.00000000       0.00000000       0.00000000       0.00000000       0.14444028
Mg       0.00000000       0.00000000       4.47151515       0.00000000       0.00000000      -0.14444028
2
Properties=species:S:1:pos:R:3:forces:R:3 energy=-0.1230616609444424 pbc="F F F"
Mg       0.00000000       0.00000000       0.00000000       0.00000000       0.00000000       0.13723645
Mg       0.00000000       0.00000000       4.53030303       0.00000000       0.00000000      -0.13723645
2
Properties=species:S:1:pos:R:3:forces:R:3 energy=-0.11521318532060676 pbc="F F F"
Mg       0.00000000       0.00000000       0.00000000       0.00000000       0.00000000       0.12973621
Mg       0.00000000       0.00000000       4.58909091       0.00000000       0.00000000      -0.12973621
2
Properties=species:S:1:pos:R:3:forces:R:3 energy=-0.10781185368337255 pbc="F F F"
Mg       0.00000000       0.00000000       0.00000000       0.00000000       0.00000000       0.12203908
Mg       0.00000000       0.00000000       4.64787879       0.00000000       0.00000000      -0.12203908
2
Properties=species:S:1:pos:R:3:forces:R:3 energy=-0.10086660770703759 pbc="F F F"
Mg       0.00000000       0.00000000       0.00000000       0.00000000       0.00000000       0.11422117
Mg       0.00000000       0.00000000       4.70666667       0.00000000       0.00000000      -0.11422117
2
Properties=species:S:1:pos:R:3:forces:R:3 energy=-0.09438350970031982 pbc="F F F"
Mg       0.00000000       0.00000000       0.00000000       0.00000000       0.00000000       0.10633236
Mg       0.00000000       0.00000000       4.76545455       0.00000000       0.00000000      -0.10633236
2
Properties=species:S:1:pos:R:3:forces:R:3 energy=-0.08836523748880237 pbc="F F F"
Mg       0.00000000       0.00000000       0.00000000       0.00000000       0.00000000       0.09840293
Mg       0.00000000       0.00000000       4.82424242       0.00000000       0.00000000      -0.09840293
2
Properties=species:S:1:pos:R:3:forces:R:3 energy=-0.08281399779544149 pbc="F F F"
Mg       0.00000000       0.00000000       0.00000000       0.00000000       0.00000000       0.09047156
Mg       0.00000000       0.00000000       4.88303030       0.00000000       0.00000000      -0.09047156
2
Properties=species:S:1:pos:R:3:forces:R:3 energy=-0.07772663992511022 pbc="F F F"
Mg       0.00000000       0.00000000       0.00000000       0.00000000       0.00000000       0.08261834
Mg       0.00000000       0.00000000       4.94181818       0.00000000       0.00000000      -0.08261834
2
Properties=species:S:1:pos:R:3:forces:R:3 energy=-0.07309512746057223 pbc="F F F"
Mg       0.00000000       0.00000000       0.00000000       0.00000000       0.00000000       0.07500163
Mg       0.00000000       0.00000000       5.00060606       0.00000000       0.00000000      -0.07500163
2
Properties=species:S:1:pos:R:3:forces:R:3 energy=-0.06889875560008805 pbc="F F F"
Mg       0.00000000       0.00000000       0.00000000       0.00000000       0.00000000       0.06786486
Mg       0.00000000       0.00000000       5.05939394       0.00000000       0.00000000      -0.06786486
2
Properties=species:S:1:pos:R:3:forces:R:3 energy=-0.065100564817794 pbc="F F F"
Mg       0.00000000       0.00000000       0.00000000       0.00000000       0.00000000       0.06150842
Mg       0.00000000       0.00000000       5.11818182       0.00000000       0.00000000      -0.06150842
2
Properties=species:S:1:pos:R:3:forces:R:3 energy=-0.06164643669761827 pbc="F F F"
Mg       0.00000000       0.00000000       0.00000000       0.00000000       0.00000000       0.05619595
Mg       0.00000000       0.00000000       5.17696970       0.00000000       0.00000000      -0.05619595
2
Properties=species:S:1:pos:R:3:forces:R:3 energy=-0.058471550560345545 pbc="F F F"
Mg       0.00000000       0.00000000       0.00000000       0.00000000       0.00000000       0.05199007
Mg       0.00000000       0.00000000       5.23575758       0.00000000       0.00000000      -0.05199007
2
Properties=species:S:1:pos:R:3:forces:R:3 energy=-0.05551829580081617 pbc="F F F"
Mg       0.00000000       0.00000000       0.00000000       0.00000000       0.00000000       0.04855873
Mg       0.00000000       0.00000000       5.29454545       0.00000000       0.00000000      -0.04855873
2
Properties=species:S:1:pos:R:3:forces:R:3 energy=-0.05276054172500764 pbc="F F F"
Mg       0.00000000       0.00000000       0.00000000       0.00000000       0.00000000       0.04522201
Mg       0.00000000       0.00000000       5.35333333       0.00000000       0.00000000      -0.04522201
2
Properties=species:S:1:pos:R:3:forces:R:3 energy=-0.050202692202262894 pbc="F F F"
Mg       0.00000000       0.00000000       0.00000000       0.00000000       0.00000000       0.04188073
Mg       0.00000000       0.00000000       5.41212121       0.00000000       0.00000000      -0.04188073
2
Properties=species:S:1:pos:R:3:forces:R:3 energy=-0.047803664617373086 pbc="F F F"
Mg       0.00000000       0.00000000       0.00000000       0.00000000       0.00000000       0.04018548
Mg       0.00000000       0.00000000       5.47090909       0.00000000       0.00000000      -0.04018548
2
Properties=species:S:1:pos:R:3:forces:R:3 energy=-0.04543257554260727 pbc="F F F"
Mg       0.00000000       0.00000000       0.00000000       0.00000000       0.00000000       0.04058178
Mg       0.00000000       0.00000000       5.52969697       0.00000000       0.00000000      -0.04058178
2
Properties=species:S:1:pos:R:3:forces:R:3 energy=-0.04306639634091204 pbc="F F F"
Mg       0.00000000       0.00000000       0.00000000       0.00000000       0.00000000       0.03937414
Mg       0.00000000       0.00000000       5.58848485       0.00000000       0.00000000      -0.03937414
2
Properties=species:S:1:pos:R:3:forces:R:3 energy=-0.040856918316131544 pbc="F F F"
Mg       0.00000000       0.00000000       0.00000000       0.00000000       0.00000000       0.03561312
Mg       0.00000000       0.00000000       5.64727273       0.00000000       0.00000000      -0.03561312
2
Properties=species:S:1:pos:R:3:forces:R:3 energy=-0.03884977162604114 pbc="F F F"
Mg       0.00000000       0.00000000       0.00000000       0.00000000       0.00000000       0.03338297
Mg       0.00000000       0.00000000       5.70606061       0.00000000       0.00000000      -0.03338297
2
Properties=species:S:1:pos:R:3:forces:R:3 energy=-0.036830922138261134 pbc="F F F"
Mg       0.00000000       0.00000000       0.00000000       0.00000000       0.00000000       0.03577482
Mg       0.00000000       0.00000000       5.76484848       0.00000000       0.00000000      -0.03577482
2
Properties=species:S:1:pos:R:3:forces:R:3 energy=-0.03468515269562937 pbc="F F F"
Mg       0.00000000       0.00000000       0.00000000       0.00000000       0.00000000       0.03602692
Mg       0.00000000       0.00000000       5.82363636       0.00000000       0.00000000      -0.03602692
2
Properties=species:S:1:pos:R:3:forces:R:3 energy=-0.03278187147427661 pbc="F F F"
Mg       0.00000000       0.00000000       0.00000000       0.00000000       0.00000000       0.02755256
Mg       0.00000000       0.00000000       5.88242424       0.00000000       0.00000000      -0.02755256
2
Properties=species:S:1:pos:R:3:forces:R:3 energy=-0.03149447278170752 pbc="F F F"
Mg       0.00000000       0.00000000       0.00000000       0.00000000       0.00000000       0.01655632
Mg       0.00000000       0.00000000       5.94121212       0.00000000       0.00000000      -0.01655632
2
Properties=species:S:1:pos:R:3:forces:R:3 energy=-0.03071185125206901 pbc="F F F"
Mg       0.00000000       0.00000000       0.00000000       0.00000000       0.00000000       0.01149992
Mg       0.00000000       0.00000000       6.00000000       0.00000000       0.00000000      -0.01149992
