2
Properties=species:S:1:pos:R:3:forces:R:3 energy=1368.5950619934417 pbc="F F F"
Na       0.00000000       0.00000000       0.00000000       0.00000000       0.00000000  -13179.14062500
Na       0.00000000       0.00000000       0.18000000       0.00000000       0.00000000   13179.14062500
2
Properties=species:S:1:pos:R:3:forces:R:3 energy=870.3019101379731 pbc="F F F"
Na       0.00000000       0.00000000       0.00000000       0.00000000       0.00000000   -5260.84228516
Na       0.00000000       0.00000000       0.23878788       0.00000000       0.00000000    5260.84228516
2
Properties=species:S:1:pos:R:3:forces:R:3 energy=653.3827206848481 pbc="F F F"
Na       0.00000000       0.00000000       0.00000000       0.00000000       0.00000000   -2563.04052734
Na       0.00000000       0.00000000       0.29757576       0.00000000       0.00000000    2563.04052734
2
Properties=species:S:1:pos:R:3:forces:R:3 energy=536.8982236145356 pbc="F F F"
Na       0.00000000       0.00000000       0.00000000       0.00000000       0.00000000   -1565.54479980
Na       0.00000000       0.00000000       0.35636364       0.00000000       0.00000000    1565.54479980
2
Properties=species:S:1:pos:R:3:forces:R:3 energy=456.37109349075024 pbc="F F F"
Na       0.00000000       0.00000000       0.00000000       0.00000000       0.00000000   -1246.11730957
Na       0.00000000       0.00000000       0.41515152       0.00000000       0.00000000    1246.11730957
2
Properties=species:S:1:pos:R:3:forces:R:3 energy=384.64858983022475 pbc="F F F"
Na       0.00000000       0.00000000       0.00000000       0.00000000       0.00000000   -1224.38122559
Na       0.00000000       0.00000000       0.47393939       0.00000000       0.00000000    1224.38122559
2
Properties=species:S:1:pos:R:3:forces:R:3 energy=310.4952390080662 pbc="F F F"
Na       0.00000000       0.00000000       0.00000000       0.00000000       0.00000000   -1302.05114746
Na       0.00000000       0.00000000       0.53272727       0.00000000       0.00000000    1302.05114746
2
Properties=species:S:1:pos:R:3:forces:R:3 energy=232.29270911192702 pbc="F F F"
Na       0.00000000       0.00000000       0.00000000       0.00000000       0.00000000   -1344.54711914
Na       0.00000000       0.00000000       0.59151515       0.00000000       0.00000000    1344.54711914
2
Properties=species:S:1:pos:R:3:forces:R:3 energy=154.77059914399848 pbc="F F F"
Na       0.00000000       0.00000000       0.00000000       0.00000000       0.00000000   -1268.07604980
Na       0.00000000       0.00000000       0.65030303       0.00000000       0.00000000    1268.07604980
2
Properties=species:S:1:pos:R:3:forces:R:3 energy=88.64392833827436 pbc="F F F"
Na       0.00000000       0.00000000       0.00000000       0.00000000       0.00000000    -923.65814209
Na       0.00000000       0.00000000       0.70909091       0.00000000       0.00000000     923.65814209
2
Properties=species:S:1:pos:R:3:forces:R:3 energy=43.045020911920744 pbc="F F F"
Na       0.00000000       0.00000000       0.00000000       0.00000000       0.00000000    -607.27221680
Na       0.00000000       0.00000000       0.76787879       0.00000000       0.00000000     607.27221680
2
Properties=species:S:1:pos:R:3:forces:R:3 energy=17.24348632573505 pbc="F F F"
Na       0.00000000       0.00000000       0.00000000       0.00000000       0.00000000    -290.61959839
Na       0.00000000       0.00000000       0.82666667       0.00000000       0.00000000     290.61959839
2
Properties=species:S:1:pos:R:3:forces:R:3 energy=6.281382100243589 pbc="F F F"
Na       0.00000000       0.00000000       0.00000000       0.00000000       0.00000000     -88.42657471
Na       0.00000000       0.00000000       0.88545455       0.00000000       0.00000000      88.42657471
2
Properties=species:S:1:pos:R:3:forces:R:3 energy=2.8070997317479787 pbc="F F F"
Na       0.00000000       0.00000000       0.00000000       0.00000000       0.00000000     -32.91428757
Na       0.00000000       0.00000000       0.94424242       0.00000000       0.00000000      32.91428757
2
Properties=species:S:1:pos:R:3:forces:R:3 energy=2.3259926821107406 pbc="F F F"
Na       0.00000000       0.00000000       0.00000000       0.00000000       0.00000000       3.84952497
Na       0.00000000       0.00000000       1.00303030       0.00000000       0.00000000      -3.84952497
2
Properties=species:S:1:pos:R:3:forces:R:3 energy=2.8369921335130504 pbc="F F F"
Na       0.00000000       0.00000000       0.00000000       0.00000000       0.00000000      11.88659763
Na       0.00000000       0.00000000       1.06181818       0.00000000       0.00000000     -11.88659763
2
Properties=species:S:1:pos:R:3:forces:R:3 energy=3.637843809612721 pbc="F F F"
Na       0.00000000       0.00000000       0.00000000       0.00000000       0.00000000      15.04929543
Na       0.00000000       0.00000000       1.12060606       0.00000000       0.00000000     -15.04929543
2
Properties=species:S:1:pos:R:3:forces:R:3 energy=4.50708667175372 pbc="F F F"
Na       0.00000000       0.00000000       0.00000000       0.00000000       0.00000000      13.21010971
Na       0.00000000       0.00000000       1.17939394       0.00000000       0.00000000     -13.21010971
2
Properties=species:S:1:pos:R:3:forces:R:3 energy=5.06590414224828 pbc="F F F"
Na       0.00000000       0.00000000       0.00000000       0.00000000       0.00000000       5.28849077
Na       0.00000000       0.00000000       1.23818182       0.00000000       0.00000000      -5.28849077
2
Properties=species:S:1:pos:R:3:forces:R:3 energy=5.127428772513244 pbc="F F F"
Na       0.00000000       0.00000000       0.00000000       0.00000000       0.00000000      -2.88497567
Na       0.00000000       0.00000000       1.29696970       0.00000000       0.00000000       2.88497567
2
Properties=species:S:1:pos:R:3:forces:R:3 energy=4.777244759476515 pbc="F F F"
Na       0.00000000       0.00000000       0.00000000       0.00000000       0.00000000      -8.55611324
Na       0.00000000       0.00000000       1.35575758       0.00000000       0.00000000       8.55611324
2
Properties=species:S:1:pos:R:3:forces:R:3 energy=4.1741627598593345 pbc="F F F"
Na       0.00000000       0.00000000       0.00000000       0.00000000       0.00000000     -11.55989361
Na       0.00000000       0.00000000       1.41454545       0.00000000       0.00000000      11.55989361
2
Properties=species:S:1:pos:R:3:forces:R:3 energy=3.458765382671953 pbc="F F F"
Na       0.00000000       0.00000000       0.00000000       0.00000000       0.00000000     -12.47943974
Na       0.00000000       0.00000000       1.47333333       0.00000000       0.00000000      12.47943974
2
Properties=species:S:1:pos:R:3:forces:R:3 energy=2.7376393717330214 pbc="F F F"
Na       0.00000000       0.00000000       0.00000000       0.00000000       0.00000000     -11.83451366
Na       0.00000000       0.00000000       1.53212121       0.00000000       0.00000000      11.83451366
2
Properties=species:S:1:pos:R:3:forces:R:3 energy=2.0860017974057694 pbc="F F F"
Na       0.00000000       0.00000000       0.00000000       0.00000000       0.00000000     -10.24271202
Na       0.00000000       0.00000000       1.59090909       0.00000000       0.00000000      10.24271202
2
Properties=species:S:1:pos:R:3:forces:R:3 energy=1.5372766284026218 pbc="F F F"
Na       0.00000000       0.00000000       0.00000000       0.00000000       0.00000000      -8.43603706
Na       0.00000000       0.00000000       1.64969697       0.00000000       0.00000000       8.43603706
2
Properties=species:S:1:pos:R:3:forces:R:3 energy=1.09013499875922 pbc="F F F"
Na       0.00000000       0.00000000       0.00000000       0.00000000       0.00000000      -6.82268476
Na       0.00000000       0.00000000       1.70848485       0.00000000       0.00000000       6.82268476
2
Properties=species:S:1:pos:R:3:forces:R:3 energy=0.7291907733815541 pbc="F F F"
Na       0.00000000       0.00000000       0.00000000       0.00000000       0.00000000      -5.50759602
Na       0.00000000       0.00000000       1.76727273       0.00000000       0.00000000       5.50759602
2
Properties=species:S:1:pos:R:3:forces:R:3 energy=0.43675049949359235 pbc="F F F"
Na       0.00000000       0.00000000       0.00000000       0.00000000       0.00000000      -4.48946238
Na       0.00000000       0.00000000       1.82606061       0.00000000       0.00000000       4.48946238
2
Properties=species:S:1:pos:R:3:forces:R:3 energy=0.1959405754127986 pbc="F F F"
Na       0.00000000       0.00000000       0.00000000       0.00000000       0.00000000      -3.74580574
Na       0.00000000       0.00000000       1.88484848       0.00000000       0.00000000       3.74580574
2
Properties=species:S:1:pos:R:3:forces:R:3 energy=-0.008031173377661953 pbc="F F F"
Na       0.00000000       0.00000000       0.00000000       0.00000000       0.00000000      -3.22352791
Na       0.00000000       0.00000000       1.94363636       0.00000000       0.00000000       3.22352791
2
Properties=species:S:1:pos:R:3:forces:R:3 energy=-0.1857033234512965 pbc="F F F"
Na       0.00000000       0.00000000       0.00000000       0.00000000       0.00000000      -2.83649087
Na       0.00000000       0.00000000       2.00242424       0.00000000       0.00000000       2.83649087
2
Properties=species:S:1:pos:R:3:forces:R:3 energy=-0.34280484605668504 pbc="F F F"
Na       0.00000000       0.00000000       0.00000000       0.00000000       0.00000000      -2.51576900
Na       0.00000000       0.00000000       2.06121212       0.00000000       0.00000000       2.51576900
2
Properties=species:S:1:pos:R:3:forces:R:3 energy=-0.4822007952081069 pbc="F F F"
Na       0.00000000       0.00000000       0.00000000       0.00000000       0.00000000      -2.23146629
Na       0.00000000       0.00000000       2.12000000       0.00000000       0.00000000       2.23146629
2
Properties=species:S:1:pos:R:3:forces:R:3 energy=-0.6056539749389551 pbc="F F F"
Na       0.00000000       0.00000000       0.00000000       0.00000000       0.00000000      -1.97195446
Na       0.00000000       0.00000000       2.17878788       0.00000000       0.00000000       1.97195446
2
Properties=species:S:1:pos:R:3:forces:R:3 energy=-0.7144064799380428 pbc="F F F"
Na       0.00000000       0.00000000       0.00000000       0.00000000       0.00000000      -1.73055601
Na       0.00000000       0.00000000       2.23757576       0.00000000       0.00000000       1.73055601
2
Properties=species:S:1:pos:R:3:forces:R:3 energy=-0.8094351892755216 pbc="F F F"
Na       0.00000000       0.00000000       0.00000000       0.00000000       0.00000000      -1.50510585
Na       0.00000000       0.00000000       2.29636364       0.00000000       0.00000000       1.50510585
2
Properties=species:S:1:pos:R:3:forces:R:3 energy=-0.8917091487624885 pbc="F F F"
Na       0.00000000       0.00000000       0.00000000       0.00000000       0.00000000      -1.29698658
Na       0.00000000       0.00000000       2.35515152       0.00000000       0.00000000       1.29698658
2
Properties=species:S:1:pos:R:3:forces:R:3 energy=-0.9623147235739802 pbc="F F F"
Na       0.00000000       0.00000000       0.00000000       0.00000000       0.00000000      -1.10844338
Na       0.00000000       0.00000000       2.41393939       0.00000000       0.00000000       1.10844338
2
Properties=species:S:1:pos:R:3:forces:R:3 energy=-1.0224440086053748 pbc="F F F"
Na       0.00000000       0.00000000       0.00000000       0.00000000       0.00000000      -0.94068241
Na       0.00000000       0.00000000       2.47272727       0.00000000       0.00000000       0.94068241
2
Properties=species:S:1:pos:R:3:forces:R:3 energy=-1.0733164578679777 pbc="F F F"
Na       0.00000000       0.00000000       0.00000000       0.00000000       0.00000000      -0.79333508
Na       0.00000000       0.00000000       2.53151515       0.00000000       0.00000000       0.79333508
2
Properties=species:S:1:pos:R:3:forces:R:3 energy=-1.116087883035627 pbc="F F F"
Na       0.00000000       0.00000000       0.00000000       0.00000000       0.00000000      -0.66470140
Na       0.00000000       0.00000000       2.59030303       0.00000000       0.00000000       0.66470140
2
Properties=species:S:1:pos:R:3:forces:R:3 energy=-1.1517845734731684 pbc="F F F"
Na       0.00000000       0.00000000       0.00000000       0.00000000       0.00000000      -0.55213183
Na       0.00000000       0.00000000       2.64909091       0.00000000       0.00000000       0.55213183
2
Properties=species:S:1:pos:R:3:forces:R:3 energy=-1.1812584414494063 pbc="F F F"
Na       0.00000000       0.00000000       0.00000000       0.00000000       0.00000000      -0.45247957
Na       0.00000000       0.00000000       2.70787879       0.00000000       0.00000000       0.45247957
2
Properties=species:S:1:pos:R:3:forces:R:3 energy=-1.2051776216102905 pbc="F F F"
Na       0.00000000       0.00000000       0.00000000       0.00000000       0.00000000      -0.36267561
Na       0.00000000       0.00000000       2.76666667       0.00000000       0.00000000       0.36267561
2
Properties=species:S:1:pos:R:3:forces:R:3 energy=-1.2240449939362588 pbc="F F F"
Na       0.00000000       0.00000000       0.00000000       0.00000000       0.00000000      -0.28028703
Na       0.00000000       0.00000000       2.82545455       0.00000000       0.00000000       0.28028703
2
Properties=species:S:1:pos:R:3:forces:R:3 energy=-1.2382480250646402 pbc="F F F"
Na       0.00000000       0.00000000       0.00000000       0.00000000       0.00000000      -0.20383635
Na       0.00000000       0.00000000       2.88424242       0.00000000       0.00000000       0.20383635
2
Properties=species:S:1:pos:R:3:forces:R:3 energy=-1.2481159300640046 pbc="F F F"
Na       0.00000000       0.00000000       0.00000000       0.00000000       0.00000000      -0.13276079
Na       0.00000000       0.00000000       2.94303030       0.00000000       0.00000000       0.13276079
2
Properties=species:S:1:pos:R:3:forces:R:3 energy=-1.253964453449462 pbc="F F F"
Na       0.00000000       0.00000000       0.00000000       0.00000000       0.00000000      -0.06712180
Na       0.00000000       0.00000000       3.00181818       0.00000000       0.00000000       0.06712180
2
Properties=species:S:1:pos:R:3:forces:R:3 energy=-1.256121525530595 pbc="F F F"
Na       0.00000000       0.00000000       0.00000000       0.00000000       0.00000000      -0.00725398
Na       0.00000000       0.00000000       3.06060606       0.00000000       0.00000000       0.00725398
2
Properties=species:S:1:pos:R:3:forces:R:3 energy=-1.2549365390735072 pbc="F F F"
Na       0.00000000       0.00000000       0.00000000       0.00000000       0.00000000       0.04651189
Na       0.00000000       0.00000000       3.11939394       0.00000000       0.00000000      -0.04651189
2
Properties=species:S:1:pos:R:3:forces:R:3 energy=-1.2507754303141738 pbc="F F F"
Na       0.00000000       0.00000000       0.00000000       0.00000000       0.00000000       0.09399194
Na       0.00000000       0.00000000       3.17818182       0.00000000       0.00000000      -0.09399194
2
Properties=species:S:1:pos:R:3:forces:R:3 energy=-1.244009443479691 pbc="F F F"
Na       0.00000000       0.00000000       0.00000000       0.00000000       0.00000000       0.13516007
Na       0.00000000       0.00000000       3.23696970       0.00000000       0.00000000      -0.13516007
2
Properties=species:S:1:pos:R:3:forces:R:3 energy=-1.2350075643196405 pbc="F F F"
Na       0.00000000       0.00000000       0.00000000       0.00000000       0.00000000       0.17001764
Na       0.00000000       0.00000000       3.29575758       0.00000000       0.00000000      -0.17001764
2
Properties=species:S:1:pos:R:3:forces:R:3 energy=-1.2241476935596936 pbc="F F F"
Na       0.00000000       0.00000000       0.00000000       0.00000000       0.00000000       0.19831675
Na       0.00000000       0.00000000       3.35454545       0.00000000       0.00000000      -0.19831675
2
Properties=species:S:1:pos:R:3:forces:R:3 energy=-1.2118359326845183 pbc="F F F"
Na       0.00000000       0.00000000       0.00000000       0.00000000       0.00000000       0.21913730
Na       0.00000000       0.00000000       3.41333333       0.00000000       0.00000000      -0.21913730
2
Properties=species:S:1:pos:R:3:forces:R:3 energy=-1.1985685869669414 pbc="F F F"
Na       0.00000000       0.00000000       0.00000000       0.00000000       0.00000000       0.23039070
Na       0.00000000       0.00000000       3.47212121       0.00000000       0.00000000      -0.23039070
2
Properties=species:S:1:pos:R:3:forces:R:3 energy=-1.1850020691908112 pbc="F F F"
Na       0.00000000       0.00000000       0.00000000       0.00000000       0.00000000       0.22866198
Na       0.00000000       0.00000000       3.53090909       0.00000000       0.00000000      -0.22866198
2
Properties=species:S:1:pos:R:3:forces:R:3 energy=-1.1720055689955646 pbc="F F F"
Na       0.00000000       0.00000000       0.00000000       0.00000000       0.00000000       0.21064860
Na       0.00000000       0.00000000       3.58969697       0.00000000       0.00000000      -0.21064860
2
Properties=species:S:1:pos:R:3:forces:R:3 energy=-1.1605243451100615 pbc="F F F"
Na       0.00000000       0.00000000       0.00000000       0.00000000       0.00000000       0.17831486
Na       0.00000000       0.00000000       3.64848485       0.00000000       0.00000000      -0.17831486
2
Properties=species:S:1:pos:R:3:forces:R:3 energy=-1.1510484713865046 pbc="F F F"
Na       0.00000000       0.00000000       0.00000000       0.00000000       0.00000000       0.14595717
Na       0.00000000       0.00000000       3.70727273       0.00000000       0.00000000      -0.14595717
2
Properties=species:S:1:pos:R:3:forces:R:3 energy=-1.1429049979489314 pbc="F F F"
Na       0.00000000       0.00000000       0.00000000       0.00000000       0.00000000       0.13654502
Na       0.00000000       0.00000000       3.76606061       0.00000000       0.00000000      -0.13654502
2
Properties=species:S:1:pos:R:3:forces:R:3 energy=-1.1343021836700506 pbc="F F F"
Na       0.00000000       0.00000000       0.00000000       0.00000000       0.00000000       0.16155301
Na       0.00000000       0.00000000       3.82484848       0.00000000       0.00000000      -0.16155301
2
Properties=species:S:1:pos:R:3:forces:R:3 energy=-1.12344276563787 pbc="F F F"
Na       0.00000000       0.00000000       0.00000000       0.00000000       0.00000000       0.21014854
Na       0.00000000       0.00000000       3.88363636       0.00000000       0.00000000      -0.21014854
2
Properties=species:S:1:pos:R:3:forces:R:3 energy=-1.1095174133476884 pbc="F F F"
Na       0.00000000       0.00000000       0.00000000       0.00000000       0.00000000       0.26294017
Na       0.00000000       0.00000000       3.94242424       0.00000000       0.00000000      -0.26294017
2
Properties=species:S:1:pos:R:3:forces:R:3 energy=-1.092700267945294 pbc="F F F"
Na       0.00000000       0.00000000       0.00000000       0.00000000       0.00000000       0.30725130
Na       0.00000000       0.00000000       4.00121212       0.00000000       0.00000000      -0.30725130
2
Properties=species:S:1:pos:R:3:forces:R:3 energy=-1.0736346738035436 pbc="F F F"
Na       0.00000000       0.00000000       0.00000000       0.00000000       0.00000000       0.33933878
Na       0.00000000       0.00000000       4.06000000       0.00000000       0.00000000      -0.33933878
2
Properties=species:S:1:pos:R:3:forces:R:3 energy=-1.0530211814132993 pbc="F F F"
Na       0.00000000       0.00000000       0.00000000       0.00000000       0.00000000       0.36030045
Na       0.00000000       0.00000000       4.11878788       0.00000000       0.00000000      -0.36030045
2
Properties=species:S:1:pos:R:3:forces:R:3 energy=-1.0314406491478847 pbc="F F F"
Na       0.00000000       0.00000000       0.00000000       0.00000000       0.00000000       0.37264100
Na       0.00000000       0.00000000       4.17757576       0.00000000       0.00000000      -0.37264100
2
Properties=species:S:1:pos:R:3:forces:R:3 energy=-1.0093282737768177 pbc="F F F"
Na       0.00000000       0.00000000       0.00000000       0.00000000       0.00000000       0.37877557
Na       0.00000000       0.00000000       4.23636364       0.00000000       0.00000000      -0.37877557
2
Properties=species:S:1:pos:R:3:forces:R:3 energy=-0.9869886459337706 pbc="F F F"
Na       0.00000000       0.00000000       0.00000000       0.00000000       0.00000000       0.38064778
Na       0.00000000       0.00000000       4.29515152       0.00000000       0.00000000      -0.38064778
2
Properties=species:S:1:pos:R:3:forces:R:3 energy=-0.9646276937630432 pbc="F F F"
Na       0.00000000       0.00000000       0.00000000       0.00000000       0.00000000       0.37974563
Na       0.00000000       0.00000000       4.35393939       0.00000000       0.00000000      -0.37974563
2
Properties=species:S:1:pos:R:3:forces:R:3 energy=-0.9423726209768888 pbc="F F F"
Na       0.00000000       0.00000000       0.00000000       0.00000000       0.00000000       0.37718141
Na       0.00000000       0.00000000       4.41272727       0.00000000       0.00000000      -0.37718141
2
Properties=species:S:1:pos:R:3:forces:R:3 energy=-0.9202966961827702 pbc="F F F"
Na       0.00000000       0.00000000       0.00000000       0.00000000       0.00000000       0.37375885
Na       0.00000000       0.00000000       4.47151515       0.00000000       0.00000000      -0.37375885
2
Properties=species:S:1:pos:R:3:forces:R:3 energy=-0.8984341725491826 pbc="F F F"
Na       0.00000000       0.00000000       0.00000000       0.00000000       0.00000000       0.36998066
Na       0.00000000       0.00000000       4.53030303       0.00000000       0.00000000      -0.36998066
2
Properties=species:S:1:pos:R:3:forces:R:3 energy=-0.87679913309794 pbc="F F F"
Na       0.00000000       0.00000000       0.00000000       0.00000000       0.00000000       0.36604416
Na       0.00000000       0.00000000       4.58909091       0.00000000       0.00000000      -0.36604416
2
Properties=species:S:1:pos:R:3:forces:R:3 energy=-0.8554015241383466 pbc="F F F"
Na       0.00000000       0.00000000       0.00000000       0.00000000       0.00000000       0.36185950
Na       0.00000000       0.00000000       4.64787879       0.00000000       0.00000000      -0.36185950
2
Properties=species:S:1:pos:R:3:forces:R:3 energy=-0.8342643710265206 pbc="F F F"
Na       0.00000000       0.00000000       0.00000000       0.00000000       0.00000000       0.35708195
Na       0.00000000       0.00000000       4.70666667       0.00000000       0.00000000      -0.35708195
2
Properties=species:S:1:pos:R:3:forces:R:3 energy=-0.8134381704915086 pbc="F F F"
Na       0.00000000       0.00000000       0.00000000       0.00000000       0.00000000       0.35125113
Na       0.00000000       0.00000000       4.76545455       0.00000000       0.00000000      -0.35125113
2
Properties=species:S:1:pos:R:3:forces:R:3 energy=-0.7929934592378061 pbc="F F F"
Na       0.00000000       0.00000000       0.00000000       0.00000000       0.00000000       0.34398907
Na       0.00000000       0.00000000       4.82424242       0.00000000       0.00000000      -0.34398907
2
Properties=species:S:1:pos:R:3:forces:R:3 energy=-0.7730231164398403 pbc="F F F"
Na       0.00000000       0.00000000       0.00000000       0.00000000       0.00000000       0.33526120
Na       0.00000000       0.00000000       4.88303030       0.00000000       0.00000000      -0.33526120
2
Properties=species:S:1:pos:R:3:forces:R:3 energy=-0.7535945959989385 pbc="F F F"
Na       0.00000000       0.00000000       0.00000000       0.00000000       0.00000000       0.32558808
Na       0.00000000       0.00000000       4.94181818       0.00000000       0.00000000      -0.32558808
2
Properties=species:S:1:pos:R:3:forces:R:3 energy=-0.7347368702943339 pbc="F F F"
Na       0.00000000       0.00000000       0.00000000       0.00000000       0.00000000       0.31613922
Na       0.00000000       0.00000000       5.00060606       0.00000000       0.00000000      -0.31613922
2
Properties=species:S:1:pos:R:3:forces:R:3 energy=-0.7163877800269537 pbc="F F F"
Na       0.00000000       0.00000000       0.00000000       0.00000000       0.00000000       0.30850661
Na       0.00000000       0.00000000       5.05939394       0.00000000       0.00000000      -0.30850661
2
Properties=species:S:1:pos:R:3:forces:R:3 energy=-0.6983998121181648 pbc="F F F"
Na       0.00000000       0.00000000       0.00000000       0.00000000       0.00000000       0.30410659
Na       0.00000000       0.00000000       5.11818182       0.00000000       0.00000000      -0.30410659
2
Properties=species:S:1:pos:R:3:forces:R:3 energy=-0.6805641278852147 pbc="F F F"
Na       0.00000000       0.00000000       0.00000000       0.00000000       0.00000000       0.30314991
Na       0.00000000       0.00000000       5.17696970       0.00000000       0.00000000      -0.30314991
2
Properties=species:S:1:pos:R:3:forces:R:3 energy=-0.6627340218515991 pbc="F F F"
Na       0.00000000       0.00000000       0.00000000       0.00000000       0.00000000       0.30325609
Na       0.00000000       0.00000000       5.23575758       0.00000000       0.00000000      -0.30325609
2
Properties=species:S:1:pos:R:3:forces:R:3 energy=-0.6450023319283861 pbc="F F F"
Na       0.00000000       0.00000000       0.00000000       0.00000000       0.00000000       0.29853824
Na       0.00000000       0.00000000       5.29454545       0.00000000       0.00000000      -0.29853824
2
Properties=species:S:1:pos:R:3:forces:R:3 energy=-0.627860404753889 pbc="F F F"
Na       0.00000000       0.00000000       0.00000000       0.00000000       0.00000000       0.28256395
Na       0.00000000       0.00000000       5.35333333       0.00000000       0.00000000      -0.28256395
2
Properties=species:S:1:pos:R:3:forces:R:3 energy=-0.6119112211222096 pbc="F F F"
Na       0.00000000       0.00000000       0.00000000       0.00000000       0.00000000       0.26081282
Na       0.00000000       0.00000000       5.41212121       0.00000000       0.00000000      -0.26081282
2
Properties=species:S:1:pos:R:3:forces:R:3 energy=-0.5968192375860502 pbc="F F F"
Na       0.00000000       0.00000000       0.00000000       0.00000000       0.00000000       0.25738260
Na       0.00000000       0.00000000       5.47090909       0.00000000       0.00000000      -0.25738260
2
Properties=species:S:1:pos:R:3:forces:R:3 energy=-0.5812747452150425 pbc="F F F"
Na       0.00000000       0.00000000       0.00000000       0.00000000       0.00000000       0.27076566
Na       0.00000000       0.00000000       5.52969697       0.00000000       0.00000000      -0.27076566
2
Properties=species:S:1:pos:R:3:forces:R:3 energy=-0.5655141238712958 pbc="F F F"
Na       0.00000000       0.00000000       0.00000000       0.00000000       0.00000000       0.25931767
Na       0.00000000       0.00000000       5.58848485       0.00000000       0.00000000      -0.25931767
2
Properties=species:S:1:pos:R:3:forces:R:3 energy=-0.5512772280562034 pbc="F F F"
Na       0.00000000       0.00000000       0.00000000       0.00000000       0.00000000       0.22471321
Na       0.00000000       0.00000000       5.64727273       0.00000000       0.00000000      -0.22471321
2
Properties=species:S:1:pos:R:3:forces:R:3 energy=-0.538618342346021 pbc="F F F"
Na       0.00000000       0.00000000       0.00000000       0.00000000       0.00000000       0.21435219
Na       0.00000000       0.00000000       5.70606061       0.00000000       0.00000000      -0.21435219
2
Properties=species:S:1:pos:R:3:forces:R:3 energy=-0.52494953751464 pbc="F F F"
Na       0.00000000       0.00000000       0.00000000       0.00000000       0.00000000       0.25507194
Na       0.00000000       0.00000000       5.76484848       0.00000000       0.00000000      -0.25507194
2
Properties=species:S:1:pos:R:3:forces:R:3 energy=-0.5092210898122415 pbc="F F F"
Na       0.00000000       0.00000000       0.00000000       0.00000000       0.00000000       0.26551455
Na       0.00000000       0.00000000       5.82363636       0.00000000       0.00000000      -0.26551455
2
Properties=species:S:1:pos:R:3:forces:R:3 energy=-0.4957759269014195 pbc="F F F"
Na       0.00000000       0.00000000       0.00000000       0.00000000       0.00000000       0.18071425
Na       0.00000000       0.00000000       5.88242424       0.00000000       0.00000000      -0.18071425
2
Properties=species:S:1:pos:R:3:forces:R:3 energy=-0.4884511824725354 pbc="F F F"
Na       0.00000000       0.00000000       0.00000000       0.00000000       0.00000000       0.07221966
Na       0.00000000       0.00000000       5.94121212       0.00000000       0.00000000      -0.07221966
2
Properties=species:S:1:pos:R:3:forces:R:3 energy=-0.4859983915830012 pbc="F F F"
Na       0.00000000       0.00000000       0.00000000       0.00000000       0.00000000       0.02602784
Na       0.00000000       0.00000000       6.00000000       0.00000000       0.00000000      -0.02602784
