2
Properties=species:S:1:pos:R:3:forces:R:3 energy=1368.5959164856292 pbc="F F F"
Na       0.00000000       0.00000000       0.00000000       0.00000000       0.00000000  -13179.14062500
Na       0.00000000       0.00000000       0.18000000       0.00000000       0.00000000   13179.14062500
2
Properties=species:S:1:pos:R:3:forces:R:3 energy=870.3023373840668 pbc="F F F"
Na       0.00000000       0.00000000       0.00000000       0.00000000       0.00000000   -5260.84277344
Na       0.00000000       0.00000000       0.23878788       0.00000000       0.00000000    5260.84277344
2
Properties=species:S:1:pos:R:3:forces:R:3 energy=653.3834531067231 pbc="F F F"
Na       0.00000000       0.00000000       0.00000000       0.00000000       0.00000000   -2563.04077148
Na       0.00000000       0.00000000       0.29757576       0.00000000       0.00000000    2563.04077148
2
Properties=species:S:1:pos:R:3:forces:R:3 energy=536.8976132629731 pbc="F F F"
Na       0.00000000       0.00000000       0.00000000       0.00000000       0.00000000   -1565.54406738
Na       0.00000000       0.00000000       0.35636364       0.00000000       0.00000000    1565.54406738
2
Properties=species:S:1:pos:R:3:forces:R:3 energy=456.370544174344 pbc="F F F"
Na       0.00000000       0.00000000       0.00000000       0.00000000       0.00000000   -1246.11621094
Na       0.00000000       0.00000000       0.41515152       0.00000000       0.00000000    1246.11621094
2
Properties=species:S:1:pos:R:3:forces:R:3 energy=384.6489865587404 pbc="F F F"
Na       0.00000000       0.00000000       0.00000000       0.00000000       0.00000000   -1224.38146973
Na       0.00000000       0.00000000       0.47393939       0.00000000       0.00000000    1224.38146973
2
Properties=species:S:1:pos:R:3:forces:R:3 energy=310.49517797290997 pbc="F F F"
Na       0.00000000       0.00000000       0.00000000       0.00000000       0.00000000   -1302.05102539
Na       0.00000000       0.00000000       0.53272727       0.00000000       0.00000000    1302.05102539
2
Properties=species:S:1:pos:R:3:forces:R:3 energy=232.29319739317702 pbc="F F F"
Na       0.00000000       0.00000000       0.00000000       0.00000000       0.00000000   -1344.55004883
Na       0.00000000       0.00000000       0.59151515       0.00000000       0.00000000    1344.55004883
2
Properties=species:S:1:pos:R:3:forces:R:3 energy=154.77037026216254 pbc="F F F"
Na       0.00000000       0.00000000       0.00000000       0.00000000       0.00000000   -1268.07373047
Na       0.00000000       0.00000000       0.65030303       0.00000000       0.00000000    1268.07373047
2
Properties=species:S:1:pos:R:3:forces:R:3 energy=88.64412670253218 pbc="F F F"
Na       0.00000000       0.00000000       0.00000000       0.00000000       0.00000000    -923.65979004
Na       0.00000000       0.00000000       0.70909091       0.00000000       0.00000000     923.65979004
2
Properties=species:S:1:pos:R:3:forces:R:3 energy=43.04502472661801 pbc="F F F"
Na       0.00000000       0.00000000       0.00000000       0.00000000       0.00000000    -607.27233887
Na       0.00000000       0.00000000       0.76787879       0.00000000       0.00000000     607.27233887
2
Properties=species:S:1:pos:R:3:forces:R:3 energy=17.243505399221377 pbc="F F F"
Na       0.00000000       0.00000000       0.00000000       0.00000000       0.00000000    -290.61926270
Na       0.00000000       0.00000000       0.82666667       0.00000000       0.00000000     290.61926270
2
Properties=species:S:1:pos:R:3:forces:R:3 energy=6.2813968821954935 pbc="F F F"
Na       0.00000000       0.00000000       0.00000000       0.00000000       0.00000000     -88.42686462
Na       0.00000000       0.00000000       0.88545455       0.00000000       0.00000000      88.42686462
2
Properties=species:S:1:pos:R:3:forces:R:3 energy=2.8071068843053517 pbc="F F F"
Na       0.00000000       0.00000000       0.00000000       0.00000000       0.00000000     -32.91424942
Na       0.00000000       0.00000000       0.94424242       0.00000000       0.00000000      32.91424942
2
Properties=species:S:1:pos:R:3:forces:R:3 energy=2.3259988809937973 pbc="F F F"
Na       0.00000000       0.00000000       0.00000000       0.00000000       0.00000000       3.84950137
Na       0.00000000       0.00000000       1.00303030       0.00000000       0.00000000      -3.84950137
2
Properties=species:S:1:pos:R:3:forces:R:3 energy=2.8369873651414683 pbc="F F F"
Na       0.00000000       0.00000000       0.00000000       0.00000000       0.00000000      11.88661003
Na       0.00000000       0.00000000       1.06181818       0.00000000       0.00000000     -11.88661003
2
Properties=species:S:1:pos:R:3:forces:R:3 energy=3.6378423791012464 pbc="F F F"
Na       0.00000000       0.00000000       0.00000000       0.00000000       0.00000000      15.04928303
Na       0.00000000       0.00000000       1.12060606       0.00000000       0.00000000     -15.04928303
2
Properties=species:S:1:pos:R:3:forces:R:3 energy=4.507090009613828 pbc="F F F"
Na       0.00000000       0.00000000       0.00000000       0.00000000       0.00000000      13.21006775
Na       0.00000000       0.00000000       1.17939394       0.00000000       0.00000000     -13.21006775
2
Properties=species:S:1:pos:R:3:forces:R:3 energy=5.065910817968494 pbc="F F F"
Na       0.00000000       0.00000000       0.00000000       0.00000000       0.00000000       5.28847933
Na       0.00000000       0.00000000       1.23818182       0.00000000       0.00000000      -5.28847933
2
Properties=species:S:1:pos:R:3:forces:R:3 energy=5.1274282956760855 pbc="F F F"
Na       0.00000000       0.00000000       0.00000000       0.00000000       0.00000000      -2.88496614
Na       0.00000000       0.00000000       1.29696970       0.00000000       0.00000000       2.88496614
2
Properties=species:S:1:pos:R:3:forces:R:3 energy=4.7772457131508315 pbc="F F F"
Na       0.00000000       0.00000000       0.00000000       0.00000000       0.00000000      -8.55611801
Na       0.00000000       0.00000000       1.35575758       0.00000000       0.00000000       8.55611801
2
Properties=species:S:1:pos:R:3:forces:R:3 energy=4.1741627598593345 pbc="F F F"
Na       0.00000000       0.00000000       0.00000000       0.00000000       0.00000000     -11.55989552
Na       0.00000000       0.00000000       1.41454545       0.00000000       0.00000000      11.55989552
2
Properties=species:S:1:pos:R:3:forces:R:3 energy=3.458765382671953 pbc="F F F"
Na       0.00000000       0.00000000       0.00000000       0.00000000       0.00000000     -12.47943687
Na       0.00000000       0.00000000       1.47333333       0.00000000       0.00000000      12.47943687
2
Properties=species:S:1:pos:R:3:forces:R:3 energy=2.7376424711745497 pbc="F F F"
Na       0.00000000       0.00000000       0.00000000       0.00000000       0.00000000     -11.83452511
Na       0.00000000       0.00000000       1.53212121       0.00000000       0.00000000      11.83452511
2
Properties=species:S:1:pos:R:3:forces:R:3 energy=2.0859996516385575 pbc="F F F"
Na       0.00000000       0.00000000       0.00000000       0.00000000       0.00000000     -10.24270725
Na       0.00000000       0.00000000       1.59090909       0.00000000       0.00000000      10.24270725
2
Properties=species:S:1:pos:R:3:forces:R:3 energy=1.53727710523978 pbc="F F F"
Na       0.00000000       0.00000000       0.00000000       0.00000000       0.00000000      -8.43604374
Na       0.00000000       0.00000000       1.64969697       0.00000000       0.00000000       8.43604374
2
Properties=species:S:1:pos:R:3:forces:R:3 energy=1.0901340450849035 pbc="F F F"
Na       0.00000000       0.00000000       0.00000000       0.00000000       0.00000000      -6.82268333
Na       0.00000000       0.00000000       1.70848485       0.00000000       0.00000000       6.82268333
2
Properties=species:S:1:pos:R:3:forces:R:3 energy=0.7291911310094228 pbc="F F F"
Na       0.00000000       0.00000000       0.00000000       0.00000000       0.00000000      -5.50759506
Na       0.00000000       0.00000000       1.76727273       0.00000000       0.00000000       5.50759506
2
Properties=species:S:1:pos:R:3:forces:R:3 energy=0.43675002265643414 pbc="F F F"
Na       0.00000000       0.00000000       0.00000000       0.00000000       0.00000000      -4.48946381
Na       0.00000000       0.00000000       1.82606061       0.00000000       0.00000000       4.48946381
2
Properties=species:S:1:pos:R:3:forces:R:3 energy=0.19594075422673293 pbc="F F F"
Na       0.00000000       0.00000000       0.00000000       0.00000000       0.00000000      -3.74580693
Na       0.00000000       0.00000000       1.88484848       0.00000000       0.00000000       3.74580693
2
Properties=species:S:1:pos:R:3:forces:R:3 energy=-0.008032065863422512 pbc="F F F"
Na       0.00000000       0.00000000       0.00000000       0.00000000       0.00000000      -3.22352791
Na       0.00000000       0.00000000       1.94363636       0.00000000       0.00000000       3.22352791
2
Properties=species:S:1:pos:R:3:forces:R:3 energy=-0.18570323562824043 pbc="F F F"
Na       0.00000000       0.00000000       0.00000000       0.00000000       0.00000000      -2.83649254
Na       0.00000000       0.00000000       2.00242424       0.00000000       0.00000000       2.83649254
2
Properties=species:S:1:pos:R:3:forces:R:3 energy=-0.34280502487061937 pbc="F F F"
Na       0.00000000       0.00000000       0.00000000       0.00000000       0.00000000      -2.51576781
Na       0.00000000       0.00000000       2.06121212       0.00000000       0.00000000       2.51576781
2
Properties=species:S:1:pos:R:3:forces:R:3 energy=-0.4822007654057845 pbc="F F F"
Na       0.00000000       0.00000000       0.00000000       0.00000000       0.00000000      -2.23146582
Na       0.00000000       0.00000000       2.12000000       0.00000000       0.00000000       2.23146582
2
Properties=species:S:1:pos:R:3:forces:R:3 energy=-0.605654272962179 pbc="F F F"
Na       0.00000000       0.00000000       0.00000000       0.00000000       0.00000000      -1.97195494
Na       0.00000000       0.00000000       2.17878788       0.00000000       0.00000000       1.97195494
2
Properties=species:S:1:pos:R:3:forces:R:3 energy=-0.7144065991473324 pbc="F F F"
Na       0.00000000       0.00000000       0.00000000       0.00000000       0.00000000      -1.73055601
Na       0.00000000       0.00000000       2.23757576       0.00000000       0.00000000       1.73055601
2
Properties=species:S:1:pos:R:3:forces:R:3 energy=-0.8094355469033903 pbc="F F F"
Na       0.00000000       0.00000000       0.00000000       0.00000000       0.00000000      -1.50510573
Na       0.00000000       0.00000000       2.29636364       0.00000000       0.00000000       1.50510573
2
Properties=species:S:1:pos:R:3:forces:R:3 energy=-0.8917088507392646 pbc="F F F"
Na       0.00000000       0.00000000       0.00000000       0.00000000       0.00000000      -1.29698551
Na       0.00000000       0.00000000       2.35515152       0.00000000       0.00000000       1.29698551
2
Properties=species:S:1:pos:R:3:forces:R:3 energy=-0.9623146043646906 pbc="F F F"
Na       0.00000000       0.00000000       0.00000000       0.00000000       0.00000000      -1.10844290
Na       0.00000000       0.00000000       2.41393939       0.00000000       0.00000000       1.10844290
2
Properties=species:S:1:pos:R:3:forces:R:3 energy=-1.0224443662332434 pbc="F F F"
Na       0.00000000       0.00000000       0.00000000       0.00000000       0.00000000      -0.94068319
Na       0.00000000       0.00000000       2.47272727       0.00000000       0.00000000       0.94068319
2
Properties=species:S:1:pos:R:3:forces:R:3 energy=-1.073317173123715 pbc="F F F"
Na       0.00000000       0.00000000       0.00000000       0.00000000       0.00000000      -0.79333532
Na       0.00000000       0.00000000       2.53151515       0.00000000       0.00000000       0.79333532
2
Properties=species:S:1:pos:R:3:forces:R:3 energy=-1.116087883035627 pbc="F F F"
Na       0.00000000       0.00000000       0.00000000       0.00000000       0.00000000      -0.66470128
Na       0.00000000       0.00000000       2.59030303       0.00000000       0.00000000       0.66470128
2
Properties=species:S:1:pos:R:3:forces:R:3 energy=-1.1517840966360102 pbc="F F F"
Na       0.00000000       0.00000000       0.00000000       0.00000000       0.00000000      -0.55213171
Na       0.00000000       0.00000000       2.64909091       0.00000000       0.00000000       0.55213171
2
Properties=species:S:1:pos:R:3:forces:R:3 energy=-1.1812584414494063 pbc="F F F"
Na       0.00000000       0.00000000       0.00000000       0.00000000       0.00000000      -0.45247975
Na       0.00000000       0.00000000       2.70787879       0.00000000       0.00000000       0.45247975
2
Properties=species:S:1:pos:R:3:forces:R:3 energy=-1.205177502401001 pbc="F F F"
Na       0.00000000       0.00000000       0.00000000       0.00000000       0.00000000      -0.36267537
Na       0.00000000       0.00000000       2.76666667       0.00000000       0.00000000       0.36267537
2
Properties=species:S:1:pos:R:3:forces:R:3 energy=-1.2240448747269692 pbc="F F F"
Na       0.00000000       0.00000000       0.00000000       0.00000000       0.00000000      -0.28028658
Na       0.00000000       0.00000000       2.82545455       0.00000000       0.00000000       0.28028658
2
Properties=species:S:1:pos:R:3:forces:R:3 energy=-1.2382479058553506 pbc="F F F"
Na       0.00000000       0.00000000       0.00000000       0.00000000       0.00000000      -0.20383741
Na       0.00000000       0.00000000       2.88424242       0.00000000       0.00000000       0.20383741
2
Properties=species:S:1:pos:R:3:forces:R:3 energy=-1.2481159300640046 pbc="F F F"
Na       0.00000000       0.00000000       0.00000000       0.00000000       0.00000000      -0.13276097
Na       0.00000000       0.00000000       2.94303030       0.00000000       0.00000000       0.13276097
2
Properties=species:S:1:pos:R:3:forces:R:3 energy=-1.2539643374079947 pbc="F F F"
Na       0.00000000       0.00000000       0.00000000       0.00000000       0.00000000      -0.06712194
Na       0.00000000       0.00000000       3.00181818       0.00000000       0.00000000       0.06712194
2
Properties=species:S:1:pos:R:3:forces:R:3 energy=-1.256121288695927 pbc="F F F"
Na       0.00000000       0.00000000       0.00000000       0.00000000       0.00000000      -0.00725377
Na       0.00000000       0.00000000       3.06060606       0.00000000       0.00000000       0.00725377
2
Properties=species:S:1:pos:R:3:forces:R:3 energy=-1.2549364198642177 pbc="F F F"
Na       0.00000000       0.00000000       0.00000000       0.00000000       0.00000000       0.04651172
Na       0.00000000       0.00000000       3.11939394       0.00000000       0.00000000      -0.04651172
2
Properties=species:S:1:pos:R:3:forces:R:3 energy=-1.250775665564931 pbc="F F F"
Na       0.00000000       0.00000000       0.00000000       0.00000000       0.00000000       0.09399203
Na       0.00000000       0.00000000       3.17818182       0.00000000       0.00000000      -0.09399203
2
Properties=species:S:1:pos:R:3:forces:R:3 energy=-1.244009443479691 pbc="F F F"
Na       0.00000000       0.00000000       0.00000000       0.00000000       0.00000000       0.13515997
Na       0.00000000       0.00000000       3.23696970       0.00000000       0.00000000      -0.13515997
2
Properties=species:S:1:pos:R:3:forces:R:3 energy=-1.2350079219475092 pbc="F F F"
Na       0.00000000       0.00000000       0.00000000       0.00000000       0.00000000       0.17001829
Na       0.00000000       0.00000000       3.29575758       0.00000000       0.00000000      -0.17001829
2
Properties=species:S:1:pos:R:3:forces:R:3 energy=-1.224147100681068 pbc="F F F"
Na       0.00000000       0.00000000       0.00000000       0.00000000       0.00000000       0.19831724
Na       0.00000000       0.00000000       3.35454545       0.00000000       0.00000000      -0.19831724
2
Properties=species:S:1:pos:R:3:forces:R:3 energy=-1.2118359326845183 pbc="F F F"
Na       0.00000000       0.00000000       0.00000000       0.00000000       0.00000000       0.21913745
Na       0.00000000       0.00000000       3.41333333       0.00000000       0.00000000      -0.21913745
2
Properties=species:S:1:pos:R:3:forces:R:3 energy=-1.198568706176231 pbc="F F F"
Na       0.00000000       0.00000000       0.00000000       0.00000000       0.00000000       0.23039073
Na       0.00000000       0.00000000       3.47212121       0.00000000       0.00000000      -0.23039073
2
Properties=species:S:1:pos:R:3:forces:R:3 energy=-1.1850021899840117 pbc="F F F"
Na       0.00000000       0.00000000       0.00000000       0.00000000       0.00000000       0.22866181
Na       0.00000000       0.00000000       3.53090909       0.00000000       0.00000000      -0.22866181
2
Properties=species:S:1:pos:R:3:forces:R:3 energy=-1.1720056882048542 pbc="F F F"
Na       0.00000000       0.00000000       0.00000000       0.00000000       0.00000000       0.21064870
Na       0.00000000       0.00000000       3.58969697       0.00000000       0.00000000      -0.21064870
2
Properties=species:S:1:pos:R:3:forces:R:3 energy=-1.1605240496706837 pbc="F F F"
Na       0.00000000       0.00000000       0.00000000       0.00000000       0.00000000       0.17831530
Na       0.00000000       0.00000000       3.64848485       0.00000000       0.00000000      -0.17831530
2
Properties=species:S:1:pos:R:3:forces:R:3 energy=-1.1510485905957941 pbc="F F F"
Na       0.00000000       0.00000000       0.00000000       0.00000000       0.00000000       0.14595753
Na       0.00000000       0.00000000       3.70727273       0.00000000       0.00000000      -0.14595753
2
Properties=species:S:1:pos:R:3:forces:R:3 energy=-1.1429048787396419 pbc="F F F"
Na       0.00000000       0.00000000       0.00000000       0.00000000       0.00000000       0.13654497
Na       0.00000000       0.00000000       3.76606061       0.00000000       0.00000000      -0.13654497
2
Properties=species:S:1:pos:R:3:forces:R:3 energy=-1.1343022521941857 pbc="F F F"
Na       0.00000000       0.00000000       0.00000000       0.00000000       0.00000000       0.16155268
Na       0.00000000       0.00000000       3.82484848       0.00000000       0.00000000      -0.16155268
2
Properties=species:S:1:pos:R:3:forces:R:3 energy=-1.12344276563787 pbc="F F F"
Na       0.00000000       0.00000000       0.00000000       0.00000000       0.00000000       0.21014866
Na       0.00000000       0.00000000       3.88363636       0.00000000       0.00000000      -0.21014866
2
Properties=species:S:1:pos:R:3:forces:R:3 energy=-1.1095174133476884 pbc="F F F"
Na       0.00000000       0.00000000       0.00000000       0.00000000       0.00000000       0.26294035
Na       0.00000000       0.00000000       3.94242424       0.00000000       0.00000000      -0.26294035
2
Properties=species:S:1:pos:R:3:forces:R:3 energy=-1.0927002742809384 pbc="F F F"
Na       0.00000000       0.00000000       0.00000000       0.00000000       0.00000000       0.30725121
Na       0.00000000       0.00000000       4.00121212       0.00000000       0.00000000      -0.30725121
2
Properties=species:S:1:pos:R:3:forces:R:3 energy=-1.0736346738035436 pbc="F F F"
Na       0.00000000       0.00000000       0.00000000       0.00000000       0.00000000       0.33933860
Na       0.00000000       0.00000000       4.06000000       0.00000000       0.00000000      -0.33933860
2
Properties=species:S:1:pos:R:3:forces:R:3 energy=-1.0530210622040097 pbc="F F F"
Na       0.00000000       0.00000000       0.00000000       0.00000000       0.00000000       0.36029994
Na       0.00000000       0.00000000       4.11878788       0.00000000       0.00000000      -0.36029994
2
Properties=species:S:1:pos:R:3:forces:R:3 energy=-1.0314405705363072 pbc="F F F"
Na       0.00000000       0.00000000       0.00000000       0.00000000       0.00000000       0.37264132
Na       0.00000000       0.00000000       4.17757576       0.00000000       0.00000000      -0.37264132
2
Properties=species:S:1:pos:R:3:forces:R:3 energy=-1.0093283207101738 pbc="F F F"
Na       0.00000000       0.00000000       0.00000000       0.00000000       0.00000000       0.37877566
Na       0.00000000       0.00000000       4.23636364       0.00000000       0.00000000      -0.37877566
2
Properties=species:S:1:pos:R:3:forces:R:3 energy=-0.9869886459337706 pbc="F F F"
Na       0.00000000       0.00000000       0.00000000       0.00000000       0.00000000       0.38064772
Na       0.00000000       0.00000000       4.29515152       0.00000000       0.00000000      -0.38064772
2
Properties=species:S:1:pos:R:3:forces:R:3 energy=-0.9646278129723328 pbc="F F F"
Na       0.00000000       0.00000000       0.00000000       0.00000000       0.00000000       0.37974527
Na       0.00000000       0.00000000       4.35393939       0.00000000       0.00000000      -0.37974527
2
Properties=species:S:1:pos:R:3:forces:R:3 energy=-0.9423725740435326 pbc="F F F"
Na       0.00000000       0.00000000       0.00000000       0.00000000       0.00000000       0.37718120
Na       0.00000000       0.00000000       4.41272727       0.00000000       0.00000000      -0.37718120
2
Properties=species:S:1:pos:R:3:forces:R:3 energy=-0.9202966961827702 pbc="F F F"
Na       0.00000000       0.00000000       0.00000000       0.00000000       0.00000000       0.37375781
Na       0.00000000       0.00000000       4.47151515       0.00000000       0.00000000      -0.37375781
2
Properties=species:S:1:pos:R:3:forces:R:3 energy=-0.898434053339893 pbc="F F F"
Na       0.00000000       0.00000000       0.00000000       0.00000000       0.00000000       0.36997983
Na       0.00000000       0.00000000       4.53030303       0.00000000       0.00000000      -0.36997983
2
Properties=species:S:1:pos:R:3:forces:R:3 energy=-0.8767991521048729 pbc="F F F"
Na       0.00000000       0.00000000       0.00000000       0.00000000       0.00000000       0.36604437
Na       0.00000000       0.00000000       4.58909091       0.00000000       0.00000000      -0.36604437
2
Properties=species:S:1:pos:R:3:forces:R:3 energy=-0.8554015241383466 pbc="F F F"
Na       0.00000000       0.00000000       0.00000000       0.00000000       0.00000000       0.36185998
Na       0.00000000       0.00000000       4.64787879       0.00000000       0.00000000      -0.36185998
2
Properties=species:S:1:pos:R:3:forces:R:3 energy=-0.8342643710265206 pbc="F F F"
Na       0.00000000       0.00000000       0.00000000       0.00000000       0.00000000       0.35708150
Na       0.00000000       0.00000000       4.70666667       0.00000000       0.00000000      -0.35708150
2
Properties=species:S:1:pos:R:3:forces:R:3 energy=-0.8134378724682847 pbc="F F F"
Na       0.00000000       0.00000000       0.00000000       0.00000000       0.00000000       0.35125059
Na       0.00000000       0.00000000       4.76545455       0.00000000       0.00000000      -0.35125059
2
Properties=species:S:1:pos:R:3:forces:R:3 energy=-0.7929938764703195 pbc="F F F"
Na       0.00000000       0.00000000       0.00000000       0.00000000       0.00000000       0.34399176
Na       0.00000000       0.00000000       4.82424242       0.00000000       0.00000000      -0.34399176
2
Properties=species:S:1:pos:R:3:forces:R:3 energy=-0.7730230568351956 pbc="F F F"
Na       0.00000000       0.00000000       0.00000000       0.00000000       0.00000000       0.33525971
Na       0.00000000       0.00000000       4.88303030       0.00000000       0.00000000      -0.33525971
2
Properties=species:S:1:pos:R:3:forces:R:3 energy=-0.7535945363942937 pbc="F F F"
Na       0.00000000       0.00000000       0.00000000       0.00000000       0.00000000       0.32558963
Na       0.00000000       0.00000000       4.94181818       0.00000000       0.00000000      -0.32558963
2
Properties=species:S:1:pos:R:3:forces:R:3 energy=-0.7347358570153727 pbc="F F F"
Na       0.00000000       0.00000000       0.00000000       0.00000000       0.00000000       0.31614092
Na       0.00000000       0.00000000       5.00060606       0.00000000       0.00000000      -0.31614092
2
Properties=species:S:1:pos:R:3:forces:R:3 energy=-0.7163877204223089 pbc="F F F"
Na       0.00000000       0.00000000       0.00000000       0.00000000       0.00000000       0.30850649
Na       0.00000000       0.00000000       5.05939394       0.00000000       0.00000000      -0.30850649
2
Properties=species:S:1:pos:R:3:forces:R:3 energy=-0.6983986796299141 pbc="F F F"
Na       0.00000000       0.00000000       0.00000000       0.00000000       0.00000000       0.30410784
Na       0.00000000       0.00000000       5.11818182       0.00000000       0.00000000      -0.30410784
2
Properties=species:S:1:pos:R:3:forces:R:3 energy=-0.6805640809518585 pbc="F F F"
Na       0.00000000       0.00000000       0.00000000       0.00000000       0.00000000       0.30314830
Na       0.00000000       0.00000000       5.17696970       0.00000000       0.00000000      -0.30314830
2
Properties=species:S:1:pos:R:3:forces:R:3 energy=-0.6627340218515991 pbc="F F F"
Na       0.00000000       0.00000000       0.00000000       0.00000000       0.00000000       0.30325526
Na       0.00000000       0.00000000       5.23575758       0.00000000       0.00000000      -0.30325526
2
Properties=species:S:1:pos:R:3:forces:R:3 energy=-0.6450031067887682 pbc="F F F"
Na       0.00000000       0.00000000       0.00000000       0.00000000       0.00000000       0.29853591
Na       0.00000000       0.00000000       5.29454545       0.00000000       0.00000000      -0.29853591
2
Properties=species:S:1:pos:R:3:forces:R:3 energy=-0.627860423760822 pbc="F F F"
Na       0.00000000       0.00000000       0.00000000       0.00000000       0.00000000       0.28256410
Na       0.00000000       0.00000000       5.35333333       0.00000000       0.00000000      -0.28256410
2
Properties=species:S:1:pos:R:3:forces:R:3 energy=-0.6119093733782216 pbc="F F F"
Na       0.00000000       0.00000000       0.00000000       0.00000000       0.00000000       0.26081607
Na       0.00000000       0.00000000       5.41212121       0.00000000       0.00000000      -0.26081607
2
Properties=species:S:1:pos:R:3:forces:R:3 energy=-0.5968191779814054 pbc="F F F"
Na       0.00000000       0.00000000       0.00000000       0.00000000       0.00000000       0.25738430
Na       0.00000000       0.00000000       5.47090909       0.00000000       0.00000000      -0.25738430
2
Properties=species:S:1:pos:R:3:forces:R:3 energy=-0.5812747046173307 pbc="F F F"
Na       0.00000000       0.00000000       0.00000000       0.00000000       0.00000000       0.27075744
Na       0.00000000       0.00000000       5.52969697       0.00000000       0.00000000      -0.27075744
2
Properties=species:S:1:pos:R:3:forces:R:3 energy=-0.5655141238712958 pbc="F F F"
Na       0.00000000       0.00000000       0.00000000       0.00000000       0.00000000       0.25932428
Na       0.00000000       0.00000000       5.58848485       0.00000000       0.00000000      -0.25932428
2
Properties=species:S:1:pos:R:3:forces:R:3 energy=-0.5512696582663169 pbc="F F F"
Na       0.00000000       0.00000000       0.00000000       0.00000000       0.00000000       0.22471365
Na       0.00000000       0.00000000       5.64727273       0.00000000       0.00000000      -0.22471365
2
Properties=species:S:1:pos:R:3:forces:R:3 energy=-0.5386183550173096 pbc="F F F"
Na       0.00000000       0.00000000       0.00000000       0.00000000       0.00000000       0.21435380
Na       0.00000000       0.00000000       5.70606061       0.00000000       0.00000000      -0.21435380
2
Properties=species:S:1:pos:R:3:forces:R:3 energy=-0.52494953751464 pbc="F F F"
Na       0.00000000       0.00000000       0.00000000       0.00000000       0.00000000       0.25508356
Na       0.00000000       0.00000000       5.76484848       0.00000000       0.00000000      -0.25508356
2
Properties=species:S:1:pos:R:3:forces:R:3 energy=-0.509237808915101 pbc="F F F"
Na       0.00000000       0.00000000       0.00000000       0.00000000       0.00000000       0.26547924
Na       0.00000000       0.00000000       5.82363636       0.00000000       0.00000000      -0.26547924
2
Properties=species:S:1:pos:R:3:forces:R:3 energy=-0.49577593957270805 pbc="F F F"
Na       0.00000000       0.00000000       0.00000000       0.00000000       0.00000000       0.18059896
Na       0.00000000       0.00000000       5.88242424       0.00000000       0.00000000      -0.18059896
2
Properties=species:S:1:pos:R:3:forces:R:3 energy=-0.4884511793047132 pbc="F F F"
Na       0.00000000       0.00000000       0.00000000       0.00000000       0.00000000       0.07222596
Na       0.00000000       0.00000000       5.94121212       0.00000000       0.00000000      -0.07222596
2
Properties=species:S:1:pos:R:3:forces:R:3 energy=-0.4859983915830012 pbc="F F F"
Na       0.00000000       0.00000000       0.00000000       0.00000000       0.00000000       0.02602784
Na       0.00000000       0.00000000       6.00000000       0.00000000       0.00000000      -0.02602784
