2
Properties=species:S:1:pos:R:3:forces:R:3 energy=8281.318721650521 pbc="F F F"
Nb       0.00000000       0.00000000       0.00000000       0.00000000       0.00000000 -106988.60937500
Nb       0.00000000       0.00000000       0.18000000       0.00000000       0.00000000  106988.60937500
2
Properties=species:S:1:pos:R:3:forces:R:3 energy=4435.87292086927 pbc="F F F"
Nb       0.00000000       0.00000000       0.00000000       0.00000000       0.00000000  -38036.77734375
Nb       0.00000000       0.00000000       0.23878788       0.00000000       0.00000000   38036.77734375
2
Properties=species:S:1:pos:R:3:forces:R:3 energy=2935.5755575880203 pbc="F F F"
Nb       0.00000000       0.00000000       0.00000000       0.00000000       0.00000000  -16771.05078125
Nb       0.00000000       0.00000000       0.29757576       0.00000000       0.00000000   16771.05078125
2
Properties=species:S:1:pos:R:3:forces:R:3 energy=2203.8907431348953 pbc="F F F"
Nb       0.00000000       0.00000000       0.00000000       0.00000000       0.00000000   -9393.11523438
Nb       0.00000000       0.00000000       0.35636364       0.00000000       0.00000000    9393.11523438
2
Properties=species:S:1:pos:R:3:forces:R:3 energy=1737.5801962725666 pbc="F F F"
Nb       0.00000000       0.00000000       0.00000000       0.00000000       0.00000000   -6944.35400391
Nb       0.00000000       0.00000000       0.41515152       0.00000000       0.00000000    6944.35400391
2
Properties=species:S:1:pos:R:3:forces:R:3 energy=1378.534541988363 pbc="F F F"
Nb       0.00000000       0.00000000       0.00000000       0.00000000       0.00000000   -4876.44335938
Nb       0.00000000       0.00000000       0.47393939       0.00000000       0.00000000    4876.44335938
2
Properties=species:S:1:pos:R:3:forces:R:3 energy=1104.8228720918305 pbc="F F F"
Nb       0.00000000       0.00000000       0.00000000       0.00000000       0.00000000   -4429.16894531
Nb       0.00000000       0.00000000       0.53272727       0.00000000       0.00000000    4429.16894531
2
Properties=species:S:1:pos:R:3:forces:R:3 energy=898.3367881708119 pbc="F F F"
Nb       0.00000000       0.00000000       0.00000000       0.00000000       0.00000000   -2921.94897461
Nb       0.00000000       0.00000000       0.59151515       0.00000000       0.00000000    2921.94897461
2
Properties=species:S:1:pos:R:3:forces:R:3 energy=735.7287560202772 pbc="F F F"
Nb       0.00000000       0.00000000       0.00000000       0.00000000       0.00000000   -2584.33911133
Nb       0.00000000       0.00000000       0.65030303       0.00000000       0.00000000    2584.33911133
2
Properties=species:S:1:pos:R:3:forces:R:3 energy=593.1832849682551 pbc="F F F"
Nb       0.00000000       0.00000000       0.00000000       0.00000000       0.00000000   -2100.04101562
Nb       0.00000000       0.00000000       0.70909091       0.00000000       0.00000000    2100.04101562
2
Properties=species:S:1:pos:R:3:forces:R:3 energy=482.3333095850582 pbc="F F F"
Nb       0.00000000       0.00000000       0.00000000       0.00000000       0.00000000   -1659.09777832
Nb       0.00000000       0.00000000       0.76787879       0.00000000       0.00000000    1659.09777832
2
Properties=species:S:1:pos:R:3:forces:R:3 energy=397.372097730966 pbc="F F F"
Nb       0.00000000       0.00000000       0.00000000       0.00000000       0.00000000   -1302.24890137
Nb       0.00000000       0.00000000       0.82666667       0.00000000       0.00000000    1302.24890137
2
Properties=species:S:1:pos:R:3:forces:R:3 energy=330.3522006945167 pbc="F F F"
Nb       0.00000000       0.00000000       0.00000000       0.00000000       0.00000000   -1038.17333984
Nb       0.00000000       0.00000000       0.88545455       0.00000000       0.00000000    1038.17333984
2
Properties=species:S:1:pos:R:3:forces:R:3 energy=268.24340613038726 pbc="F F F"
Nb       0.00000000       0.00000000       0.00000000       0.00000000       0.00000000   -1107.43395996
Nb       0.00000000       0.00000000       0.94424242       0.00000000       0.00000000    1107.43395996
2
Properties=species:S:1:pos:R:3:forces:R:3 energy=206.8299395531301 pbc="F F F"
Nb       0.00000000       0.00000000       0.00000000       0.00000000       0.00000000    -937.02154541
Nb       0.00000000       0.00000000       1.00303030       0.00000000       0.00000000     937.02154541
2
Properties=species:S:1:pos:R:3:forces:R:3 energy=157.666335938211 pbc="F F F"
Nb       0.00000000       0.00000000       0.00000000       0.00000000       0.00000000    -748.27801514
Nb       0.00000000       0.00000000       1.06181818       0.00000000       0.00000000     748.27801514
2
Properties=species:S:1:pos:R:3:forces:R:3 energy=117.83240645151348 pbc="F F F"
Nb       0.00000000       0.00000000       0.00000000       0.00000000       0.00000000    -609.25640869
Nb       0.00000000       0.00000000       1.12060606       0.00000000       0.00000000     609.25640869
2
Properties=species:S:1:pos:R:3:forces:R:3 energy=85.98428675348988 pbc="F F F"
Nb       0.00000000       0.00000000       0.00000000       0.00000000       0.00000000    -475.48611450
Nb       0.00000000       0.00000000       1.17939394       0.00000000       0.00000000     475.48611450
2
Properties=species:S:1:pos:R:3:forces:R:3 energy=61.532938102969176 pbc="F F F"
Nb       0.00000000       0.00000000       0.00000000       0.00000000       0.00000000    -361.13510132
Nb       0.00000000       0.00000000       1.23818182       0.00000000       0.00000000     361.13510132
2
Properties=species:S:1:pos:R:3:forces:R:3 energy=42.9887823859296 pbc="F F F"
Nb       0.00000000       0.00000000       0.00000000       0.00000000       0.00000000    -273.44638062
Nb       0.00000000       0.00000000       1.29696970       0.00000000       0.00000000     273.44638062
2
Properties=species:S:1:pos:R:3:forces:R:3 energy=29.03586172501969 pbc="F F F"
Nb       0.00000000       0.00000000       0.00000000       0.00000000       0.00000000    -203.84114075
Nb       0.00000000       0.00000000       1.35575758       0.00000000       0.00000000     203.84114075
2
Properties=species:S:1:pos:R:3:forces:R:3 energy=18.698889820208464 pbc="F F F"
Nb       0.00000000       0.00000000       0.00000000       0.00000000       0.00000000    -150.80844116
Nb       0.00000000       0.00000000       1.41454545       0.00000000       0.00000000     150.80844116
2
Properties=species:S:1:pos:R:3:forces:R:3 energy=10.960046522295826 pbc="F F F"
Nb       0.00000000       0.00000000       0.00000000       0.00000000       0.00000000    -114.99994659
Nb       0.00000000       0.00000000       1.47333333       0.00000000       0.00000000     114.99994659
2
Properties=species:S:1:pos:R:3:forces:R:3 energy=4.9740852485184375 pbc="F F F"
Nb       0.00000000       0.00000000       0.00000000       0.00000000       0.00000000     -89.57817841
Nb       0.00000000       0.00000000       1.53212121       0.00000000       0.00000000      89.57817841
2
Properties=species:S:1:pos:R:3:forces:R:3 energy=0.3658618276639319 pbc="F F F"
Nb       0.00000000       0.00000000       0.00000000       0.00000000       0.00000000     -67.66090393
Nb       0.00000000       0.00000000       1.59090909       0.00000000       0.00000000      67.66090393
2
Properties=species:S:1:pos:R:3:forces:R:3 energy=-3.058229110220264 pbc="F F F"
Nb       0.00000000       0.00000000       0.00000000       0.00000000       0.00000000     -49.63920212
Nb       0.00000000       0.00000000       1.64969697       0.00000000       0.00000000      49.63920212
2
Properties=species:S:1:pos:R:3:forces:R:3 energy=-5.5646703041468335 pbc="F F F"
Nb       0.00000000       0.00000000       0.00000000       0.00000000       0.00000000     -36.33675003
Nb       0.00000000       0.00000000       1.70848485       0.00000000       0.00000000      36.33675003
2
Properties=species:S:1:pos:R:3:forces:R:3 energy=-7.397992252177242 pbc="F F F"
Nb       0.00000000       0.00000000       0.00000000       0.00000000       0.00000000     -26.49106026
Nb       0.00000000       0.00000000       1.76727273       0.00000000       0.00000000      26.49106026
2
Properties=species:S:1:pos:R:3:forces:R:3 energy=-8.7235819662169 pbc="F F F"
Nb       0.00000000       0.00000000       0.00000000       0.00000000       0.00000000     -18.92338943
Nb       0.00000000       0.00000000       1.82606061       0.00000000       0.00000000      18.92338943
2
Properties=species:S:1:pos:R:3:forces:R:3 energy=-9.655908492955083 pbc="F F F"
Nb       0.00000000       0.00000000       0.00000000       0.00000000       0.00000000     -13.04815483
Nb       0.00000000       0.00000000       1.88484848       0.00000000       0.00000000      13.04815483
2
Properties=species:S:1:pos:R:3:forces:R:3 energy=-10.284899539073692 pbc="F F F"
Nb       0.00000000       0.00000000       0.00000000       0.00000000       0.00000000      -8.55936718
Nb       0.00000000       0.00000000       1.94363636       0.00000000       0.00000000       8.55936718
2
Properties=species:S:1:pos:R:3:forces:R:3 energy=-10.684108814120687 pbc="F F F"
Nb       0.00000000       0.00000000       0.00000000       0.00000000       0.00000000      -5.18365479
Nb       0.00000000       0.00000000       2.00242424       0.00000000       0.00000000       5.18365479
2
Properties=species:S:1:pos:R:3:forces:R:3 energy=-10.91061451488055 pbc="F F F"
Nb       0.00000000       0.00000000       0.00000000       0.00000000       0.00000000      -2.63839984
Nb       0.00000000       0.00000000       2.06121212       0.00000000       0.00000000       2.63839984
2
Properties=species:S:1:pos:R:3:forces:R:3 energy=-11.005746227943993 pbc="F F F"
Nb       0.00000000       0.00000000       0.00000000       0.00000000       0.00000000      -0.67812836
Nb       0.00000000       0.00000000       2.12000000       0.00000000       0.00000000       0.67812836
2
Properties=species:S:1:pos:R:3:forces:R:3 energy=-10.998150419099556 pbc="F F F"
Nb       0.00000000       0.00000000       0.00000000       0.00000000       0.00000000       0.88128984
Nb       0.00000000       0.00000000       2.17878788       0.00000000       0.00000000      -0.88128984
2
Properties=species:S:1:pos:R:3:forces:R:3 energy=-10.907824009862296 pbc="F F F"
Nb       0.00000000       0.00000000       0.00000000       0.00000000       0.00000000       2.14759970
Nb       0.00000000       0.00000000       2.23757576       0.00000000       0.00000000      -2.14759970
2
Properties=species:S:1:pos:R:3:forces:R:3 energy=-10.750657634239959 pbc="F F F"
Nb       0.00000000       0.00000000       0.00000000       0.00000000       0.00000000       3.15683103
Nb       0.00000000       0.00000000       2.29636364       0.00000000       0.00000000      -3.15683103
2
Properties=species:S:1:pos:R:3:forces:R:3 energy=-10.541669684396428 pbc="F F F"
Nb       0.00000000       0.00000000       0.00000000       0.00000000       0.00000000       3.91042399
Nb       0.00000000       0.00000000       2.35515152       0.00000000       0.00000000      -3.91042399
2
Properties=species:S:1:pos:R:3:forces:R:3 energy=-10.295825383521274 pbc="F F F"
Nb       0.00000000       0.00000000       0.00000000       0.00000000       0.00000000       4.41266108
Nb       0.00000000       0.00000000       2.41393939       0.00000000       0.00000000      -4.41266108
2
Properties=species:S:1:pos:R:3:forces:R:3 energy=-10.027344040825666 pbc="F F F"
Nb       0.00000000       0.00000000       0.00000000       0.00000000       0.00000000       4.68588734
Nb       0.00000000       0.00000000       2.47272727       0.00000000       0.00000000      -4.68588734
2
Properties=species:S:1:pos:R:3:forces:R:3 energy=-9.748644885987261 pbc="F F F"
Nb       0.00000000       0.00000000       0.00000000       0.00000000       0.00000000       4.76713324
Nb       0.00000000       0.00000000       2.53151515       0.00000000       0.00000000      -4.76713324
2
Properties=species:S:1:pos:R:3:forces:R:3 energy=-9.46979741932338 pbc="F F F"
Nb       0.00000000       0.00000000       0.00000000       0.00000000       0.00000000       4.69751120
Nb       0.00000000       0.00000000       2.59030303       0.00000000       0.00000000      -4.69751120
2
Properties=species:S:1:pos:R:3:forces:R:3 energy=-9.198564050415767 pbc="F F F"
Nb       0.00000000       0.00000000       0.00000000       0.00000000       0.00000000       4.51367712
Nb       0.00000000       0.00000000       2.64909091       0.00000000       0.00000000      -4.51367712
2
Properties=species:S:1:pos:R:3:forces:R:3 energy=-8.940759153548084 pbc="F F F"
Nb       0.00000000       0.00000000       0.00000000       0.00000000       0.00000000       4.24486208
Nb       0.00000000       0.00000000       2.70787879       0.00000000       0.00000000      -4.24486208
2
Properties=species:S:1:pos:R:3:forces:R:3 energy=-8.700671274404849 pbc="F F F"
Nb       0.00000000       0.00000000       0.00000000       0.00000000       0.00000000       3.91456437
Nb       0.00000000       0.00000000       2.76666667       0.00000000       0.00000000      -3.91456437
2
Properties=species:S:1:pos:R:3:forces:R:3 energy=-8.481289215650337 pbc="F F F"
Nb       0.00000000       0.00000000       0.00000000       0.00000000       0.00000000       3.54413986
Nb       0.00000000       0.00000000       2.82545455       0.00000000       0.00000000      -3.54413986
2
Properties=species:S:1:pos:R:3:forces:R:3 energy=-8.28432749706406 pbc="F F F"
Nb       0.00000000       0.00000000       0.00000000       0.00000000       0.00000000       3.15542841
Nb       0.00000000       0.00000000       2.88424242       0.00000000       0.00000000      -3.15542841
2
Properties=species:S:1:pos:R:3:forces:R:3 energy=-8.110200879275654 pbc="F F F"
Nb       0.00000000       0.00000000       0.00000000       0.00000000       0.00000000       2.77106786
Nb       0.00000000       0.00000000       2.94303030       0.00000000       0.00000000      -2.77106786
2
Properties=species:S:1:pos:R:3:forces:R:3 energy=-7.957997869626607 pbc="F F F"
Nb       0.00000000       0.00000000       0.00000000       0.00000000       0.00000000       2.41312289
Nb       0.00000000       0.00000000       3.00181818       0.00000000       0.00000000      -2.41312289
2
Properties=species:S:1:pos:R:3:forces:R:3 energy=-7.825562846282867 pbc="F F F"
Nb       0.00000000       0.00000000       0.00000000       0.00000000       0.00000000       2.10170817
Nb       0.00000000       0.00000000       3.06060606       0.00000000       0.00000000      -2.10170817
2
Properties=species:S:1:pos:R:3:forces:R:3 energy=-7.7096592110539435 pbc="F F F"
Nb       0.00000000       0.00000000       0.00000000       0.00000000       0.00000000       1.85261846
Nb       0.00000000       0.00000000       3.11939394       0.00000000       0.00000000      -1.85261846
2
Properties=species:S:1:pos:R:3:forces:R:3 energy=-7.606432047568204 pbc="F F F"
Nb       0.00000000       0.00000000       0.00000000       0.00000000       0.00000000       1.66944432
Nb       0.00000000       0.00000000       3.17818182       0.00000000       0.00000000      -1.66944432
2
Properties=species:S:1:pos:R:3:forces:R:3 energy=-7.512392261105258 pbc="F F F"
Nb       0.00000000       0.00000000       0.00000000       0.00000000       0.00000000       1.53595185
Nb       0.00000000       0.00000000       3.23696970       0.00000000       0.00000000      -1.53595185
2
Properties=species:S:1:pos:R:3:forces:R:3 energy=-7.425386208937073 pbc="F F F"
Nb       0.00000000       0.00000000       0.00000000       0.00000000       0.00000000       1.42612863
Nb       0.00000000       0.00000000       3.29575758       0.00000000       0.00000000      -1.42612863
2
Properties=species:S:1:pos:R:3:forces:R:3 energy=-7.34458565315124 pbc="F F F"
Nb       0.00000000       0.00000000       0.00000000       0.00000000       0.00000000       1.32333541
Nb       0.00000000       0.00000000       3.35454545       0.00000000       0.00000000      -1.32333541
2
Properties=species:S:1:pos:R:3:forces:R:3 energy=-7.269725356752506 pbc="F F F"
Nb       0.00000000       0.00000000       0.00000000       0.00000000       0.00000000       1.22418213
Nb       0.00000000       0.00000000       3.41333333       0.00000000       0.00000000      -1.22418213
2
Properties=species:S:1:pos:R:3:forces:R:3 energy=-7.20053777570773 pbc="F F F"
Nb       0.00000000       0.00000000       0.00000000       0.00000000       0.00000000       1.13079774
Nb       0.00000000       0.00000000       3.47212121       0.00000000       0.00000000      -1.13079774
2
Properties=species:S:1:pos:R:3:forces:R:3 energy=-7.136615164686201 pbc="F F F"
Nb       0.00000000       0.00000000       0.00000000       0.00000000       0.00000000       1.04537952
Nb       0.00000000       0.00000000       3.53090909       0.00000000       0.00000000      -1.04537952
2
Properties=species:S:1:pos:R:3:forces:R:3 energy=-7.077448725143403 pbc="F F F"
Nb       0.00000000       0.00000000       0.00000000       0.00000000       0.00000000       0.96900457
Nb       0.00000000       0.00000000       3.58969697       0.00000000       0.00000000      -0.96900457
2
Properties=species:S:1:pos:R:3:forces:R:3 energy=-7.022500552323572 pbc="F F F"
Nb       0.00000000       0.00000000       0.00000000       0.00000000       0.00000000       0.90192175
Nb       0.00000000       0.00000000       3.64848485       0.00000000       0.00000000      -0.90192175
2
Properties=species:S:1:pos:R:3:forces:R:3 energy=-6.971229486802641 pbc="F F F"
Nb       0.00000000       0.00000000       0.00000000       0.00000000       0.00000000       0.84378940
Nb       0.00000000       0.00000000       3.70727273       0.00000000       0.00000000      -0.84378940
2
Properties=species:S:1:pos:R:3:forces:R:3 energy=-6.92313192652924 pbc="F F F"
Nb       0.00000000       0.00000000       0.00000000       0.00000000       0.00000000       0.79373789
Nb       0.00000000       0.00000000       3.76606061       0.00000000       0.00000000      -0.79373789
2
Properties=species:S:1:pos:R:3:forces:R:3 energy=-6.877773379481416 pbc="F F F"
Nb       0.00000000       0.00000000       0.00000000       0.00000000       0.00000000       0.75043064
Nb       0.00000000       0.00000000       3.82484848       0.00000000       0.00000000      -0.75043064
2
Properties=species:S:1:pos:R:3:forces:R:3 energy=-6.8347997870614945 pbc="F F F"
Nb       0.00000000       0.00000000       0.00000000       0.00000000       0.00000000       0.71221739
Nb       0.00000000       0.00000000       3.88363636       0.00000000       0.00000000      -0.71221739
2
Properties=species:S:1:pos:R:3:forces:R:3 energy=-6.79396583955825 pbc="F F F"
Nb       0.00000000       0.00000000       0.00000000       0.00000000       0.00000000       0.67744541
Nb       0.00000000       0.00000000       3.94242424       0.00000000       0.00000000      -0.67744541
2
Properties=species:S:1:pos:R:3:forces:R:3 energy=-6.755110109258767 pbc="F F F"
Nb       0.00000000       0.00000000       0.00000000       0.00000000       0.00000000       0.64472562
Nb       0.00000000       0.00000000       4.00121212       0.00000000       0.00000000      -0.64472562
2
Properties=species:S:1:pos:R:3:forces:R:3 energy=-6.7181406502990235 pbc="F F F"
Nb       0.00000000       0.00000000       0.00000000       0.00000000       0.00000000       0.61310267
Nb       0.00000000       0.00000000       4.06000000       0.00000000       0.00000000      -0.61310267
2
Properties=species:S:1:pos:R:3:forces:R:3 energy=-6.683012039124378 pbc="F F F"
Nb       0.00000000       0.00000000       0.00000000       0.00000000       0.00000000       0.58207506
Nb       0.00000000       0.00000000       4.11878788       0.00000000       0.00000000      -0.58207506
2
Properties=species:S:1:pos:R:3:forces:R:3 energy=-6.649694654170823 pbc="F F F"
Nb       0.00000000       0.00000000       0.00000000       0.00000000       0.00000000       0.55146974
Nb       0.00000000       0.00000000       4.17757576       0.00000000       0.00000000      -0.55146974
2
Properties=species:S:1:pos:R:3:forces:R:3 energy=-6.618164286817817 pbc="F F F"
Nb       0.00000000       0.00000000       0.00000000       0.00000000       0.00000000       0.52127123
Nb       0.00000000       0.00000000       4.23636364       0.00000000       0.00000000      -0.52127123
2
Properties=species:S:1:pos:R:3:forces:R:3 energy=-6.588396858165674 pbc="F F F"
Nb       0.00000000       0.00000000       0.00000000       0.00000000       0.00000000       0.49147588
Nb       0.00000000       0.00000000       4.29515152       0.00000000       0.00000000      -0.49147588
2
Properties=species:S:1:pos:R:3:forces:R:3 energy=-6.560372411130875 pbc="F F F"
Nb       0.00000000       0.00000000       0.00000000       0.00000000       0.00000000       0.46202523
Nb       0.00000000       0.00000000       4.35393939       0.00000000       0.00000000      -0.46202523
2
Properties=species:S:1:pos:R:3:forces:R:3 energy=-6.534070890267563 pbc="F F F"
Nb       0.00000000       0.00000000       0.00000000       0.00000000       0.00000000       0.43277961
Nb       0.00000000       0.00000000       4.41272727       0.00000000       0.00000000      -0.43277961
2
Properties=species:S:1:pos:R:3:forces:R:3 energy=-6.509486529245667 pbc="F F F"
Nb       0.00000000       0.00000000       0.00000000       0.00000000       0.00000000       0.40357894
Nb       0.00000000       0.00000000       4.47151515       0.00000000       0.00000000      -0.40357894
2
Properties=species:S:1:pos:R:3:forces:R:3 energy=-6.486621111774243 pbc="F F F"
Nb       0.00000000       0.00000000       0.00000000       0.00000000       0.00000000       0.37429255
Nb       0.00000000       0.00000000       4.53030303       0.00000000       0.00000000      -0.37429255
2
Properties=species:S:1:pos:R:3:forces:R:3 energy=-6.465481772813204 pbc="F F F"
Nb       0.00000000       0.00000000       0.00000000       0.00000000       0.00000000       0.34487033
Nb       0.00000000       0.00000000       4.58909091       0.00000000       0.00000000      -0.34487033
2
Properties=species:S:1:pos:R:3:forces:R:3 energy=-6.446075187828404 pbc="F F F"
Nb       0.00000000       0.00000000       0.00000000       0.00000000       0.00000000       0.31535193
Nb       0.00000000       0.00000000       4.64787879       0.00000000       0.00000000      -0.31535193
2
Properties=species:S:1:pos:R:3:forces:R:3 energy=-6.428403084852237 pbc="F F F"
Nb       0.00000000       0.00000000       0.00000000       0.00000000       0.00000000       0.28585932
Nb       0.00000000       0.00000000       4.70666667       0.00000000       0.00000000      -0.28585932
2
Properties=species:S:1:pos:R:3:forces:R:3 energy=-6.4124601407300315 pbc="F F F"
Nb       0.00000000       0.00000000       0.00000000       0.00000000       0.00000000       0.25659651
Nb       0.00000000       0.00000000       4.76545455       0.00000000       0.00000000      -0.25659651
2
Properties=species:S:1:pos:R:3:forces:R:3 energy=-6.39822425430756 pbc="F F F"
Nb       0.00000000       0.00000000       0.00000000       0.00000000       0.00000000       0.22781874
Nb       0.00000000       0.00000000       4.82424242       0.00000000       0.00000000      -0.22781874
2
Properties=species:S:1:pos:R:3:forces:R:3 energy=-6.3856583270667855 pbc="F F F"
Nb       0.00000000       0.00000000       0.00000000       0.00000000       0.00000000       0.19987929
Nb       0.00000000       0.00000000       4.88303030       0.00000000       0.00000000      -0.19987929
2
Properties=species:S:1:pos:R:3:forces:R:3 energy=-6.374698502251848 pbc="F F F"
Nb       0.00000000       0.00000000       0.00000000       0.00000000       0.00000000       0.17322707
Nb       0.00000000       0.00000000       4.94181818       0.00000000       0.00000000      -0.17322707
2
Properties=species:S:1:pos:R:3:forces:R:3 energy=-6.365253160509595 pbc="F F F"
Nb       0.00000000       0.00000000       0.00000000       0.00000000       0.00000000       0.14845744
Nb       0.00000000       0.00000000       5.00060606       0.00000000       0.00000000      -0.14845744
2
Properties=species:S:1:pos:R:3:forces:R:3 energy=-6.357192404129522 pbc="F F F"
Nb       0.00000000       0.00000000       0.00000000       0.00000000       0.00000000       0.12626357
Nb       0.00000000       0.00000000       5.05939394       0.00000000       0.00000000      -0.12626357
2
Properties=species:S:1:pos:R:3:forces:R:3 energy=-6.350343912893008 pbc="F F F"
Nb       0.00000000       0.00000000       0.00000000       0.00000000       0.00000000       0.10733297
Nb       0.00000000       0.00000000       5.11818182       0.00000000       0.00000000      -0.10733297
2
Properties=species:S:1:pos:R:3:forces:R:3 energy=-6.344499218984098 pbc="F F F"
Nb       0.00000000       0.00000000       0.00000000       0.00000000       0.00000000       0.09214423
Nb       0.00000000       0.00000000       5.17696970       0.00000000       0.00000000      -0.09214423
2
Properties=species:S:1:pos:R:3:forces:R:3 energy=-6.339436976975596 pbc="F F F"
Nb       0.00000000       0.00000000       0.00000000       0.00000000       0.00000000       0.08065639
Nb       0.00000000       0.00000000       5.23575758       0.00000000       0.00000000      -0.08065639
2
Properties=species:S:1:pos:R:3:forces:R:3 energy=-6.334960163463042 pbc="F F F"
Nb       0.00000000       0.00000000       0.00000000       0.00000000       0.00000000       0.07200200
Nb       0.00000000       0.00000000       5.29454545       0.00000000       0.00000000      -0.07200200
2
Properties=species:S:1:pos:R:3:forces:R:3 energy=-6.330946628139135 pbc="F F F"
Nb       0.00000000       0.00000000       0.00000000       0.00000000       0.00000000       0.06463688
Nb       0.00000000       0.00000000       5.35333333       0.00000000       0.00000000      -0.06463688
2
Properties=species:S:1:pos:R:3:forces:R:3 energy=-6.327346646251492 pbc="F F F"
Nb       0.00000000       0.00000000       0.00000000       0.00000000       0.00000000       0.05811689
Nb       0.00000000       0.00000000       5.41212121       0.00000000       0.00000000      -0.05811689
2
Properties=species:S:1:pos:R:3:forces:R:3 energy=-6.324044794217878 pbc="F F F"
Nb       0.00000000       0.00000000       0.00000000       0.00000000       0.00000000       0.05504477
Nb       0.00000000       0.00000000       5.47090909       0.00000000       0.00000000      -0.05504477
2
Properties=species:S:1:pos:R:3:forces:R:3 energy=-6.320787934544031 pbc="F F F"
Nb       0.00000000       0.00000000       0.00000000       0.00000000       0.00000000       0.05607438
Nb       0.00000000       0.00000000       5.52969697       0.00000000       0.00000000      -0.05607438
2
Properties=species:S:1:pos:R:3:forces:R:3 energy=-6.317480877036501 pbc="F F F"
Nb       0.00000000       0.00000000       0.00000000       0.00000000       0.00000000       0.05585045
Nb       0.00000000       0.00000000       5.58848485       0.00000000       0.00000000      -0.05585045
2
Properties=species:S:1:pos:R:3:forces:R:3 energy=-6.3142776796152384 pbc="F F F"
Nb       0.00000000       0.00000000       0.00000000       0.00000000       0.00000000       0.05301886
Nb       0.00000000       0.00000000       5.64727273       0.00000000       0.00000000      -0.05301886
2
Properties=species:S:1:pos:R:3:forces:R:3 energy=-6.311177195368778 pbc="F F F"
Nb       0.00000000       0.00000000       0.00000000       0.00000000       0.00000000       0.05386113
Nb       0.00000000       0.00000000       5.70606061       0.00000000       0.00000000      -0.05386113
2
Properties=species:S:1:pos:R:3:forces:R:3 energy=-6.307739961162966 pbc="F F F"
Nb       0.00000000       0.00000000       0.00000000       0.00000000       0.00000000       0.06422165
Nb       0.00000000       0.00000000       5.76484848       0.00000000       0.00000000      -0.06422165
2
Properties=species:S:1:pos:R:3:forces:R:3 energy=-6.303693986740328 pbc="F F F"
Nb       0.00000000       0.00000000       0.00000000       0.00000000       0.00000000       0.07093403
Nb       0.00000000       0.00000000       5.82363636       0.00000000       0.00000000      -0.07093403
2
Properties=species:S:1:pos:R:3:forces:R:3 energy=-6.299831053354196 pbc="F F F"
Nb       0.00000000       0.00000000       0.00000000       0.00000000       0.00000000       0.05740589
Nb       0.00000000       0.00000000       5.88242424       0.00000000       0.00000000      -0.05740589
2
Properties=species:S:1:pos:R:3:forces:R:3 energy=-6.297116702716655 pbc="F F F"
Nb       0.00000000       0.00000000       0.00000000       0.00000000       0.00000000       0.03525062
Nb       0.00000000       0.00000000       5.94121212       0.00000000       0.00000000      -0.03525062
2
Properties=species:S:1:pos:R:3:forces:R:3 energy=-6.295444741509136 pbc="F F F"
Nb       0.00000000       0.00000000       0.00000000       0.00000000       0.00000000       0.02468648
Nb       0.00000000       0.00000000       6.00000000       0.00000000       0.00000000      -0.02468648
