2
Properties=species:S:1:pos:R:3:forces:R:3 energy=804.7497907378934 pbc="F F F"
Ne       0.00000000       0.00000000       0.00000000       0.00000000       0.00000000  -11240.69238281
Ne       0.00000000       0.00000000       0.18000000       0.00000000       0.00000000   11240.69238281
2
Properties=species:S:1:pos:R:3:forces:R:3 energy=379.79858834531524 pbc="F F F"
Ne       0.00000000       0.00000000       0.00000000       0.00000000       0.00000000   -4464.79736328
Ne       0.00000000       0.00000000       0.23878788       0.00000000       0.00000000    4464.79736328
2
Properties=species:S:1:pos:R:3:forces:R:3 energy=198.855686735571 pbc="F F F"
Ne       0.00000000       0.00000000       0.00000000       0.00000000       0.00000000   -2060.12890625
Ne       0.00000000       0.00000000       0.29757576       0.00000000       0.00000000    2060.12890625
2
Properties=species:S:1:pos:R:3:forces:R:3 energy=111.25621469402832 pbc="F F F"
Ne       0.00000000       0.00000000       0.00000000       0.00000000       0.00000000   -1052.96630859
Ne       0.00000000       0.00000000       0.35636364       0.00000000       0.00000000    1052.96630859
2
Properties=species:S:1:pos:R:3:forces:R:3 energy=64.9523130311685 pbc="F F F"
Ne       0.00000000       0.00000000       0.00000000       0.00000000       0.00000000    -577.05078125
Ne       0.00000000       0.00000000       0.41515152       0.00000000       0.00000000     577.05078125
2
Properties=species:S:1:pos:R:3:forces:R:3 energy=39.03606472824625 pbc="F F F"
Ne       0.00000000       0.00000000       0.00000000       0.00000000       0.00000000    -329.83633423
Ne       0.00000000       0.00000000       0.47393939       0.00000000       0.00000000     329.83633423
2
Properties=species:S:1:pos:R:3:forces:R:3 energy=24.003475804352064 pbc="F F F"
Ne       0.00000000       0.00000000       0.00000000       0.00000000       0.00000000    -195.01936340
Ne       0.00000000       0.00000000       0.53272727       0.00000000       0.00000000     195.01936340
2
Properties=species:S:1:pos:R:3:forces:R:3 energy=14.997897824255979 pbc="F F F"
Ne       0.00000000       0.00000000       0.00000000       0.00000000       0.00000000    -117.67329407
Ne       0.00000000       0.00000000       0.59151515       0.00000000       0.00000000     117.67329407
2
Properties=species:S:1:pos:R:3:forces:R:3 energy=9.52777081951742 pbc="F F F"
Ne       0.00000000       0.00000000       0.00000000       0.00000000       0.00000000     -73.24413300
Ne       0.00000000       0.00000000       0.65030303       0.00000000       0.00000000      73.24413300
2
Properties=species:S:1:pos:R:3:forces:R:3 energy=6.015286427036475 pbc="F F F"
Ne       0.00000000       0.00000000       0.00000000       0.00000000       0.00000000     -47.95356750
Ne       0.00000000       0.00000000       0.70909091       0.00000000       0.00000000      47.95356750
2
Properties=species:S:1:pos:R:3:forces:R:3 energy=3.734935743460795 pbc="F F F"
Ne       0.00000000       0.00000000       0.00000000       0.00000000       0.00000000     -30.74144363
Ne       0.00000000       0.00000000       0.76787879       0.00000000       0.00000000      30.74144363
2
Properties=species:S:1:pos:R:3:forces:R:3 energy=2.2989433789300446 pbc="F F F"
Ne       0.00000000       0.00000000       0.00000000       0.00000000       0.00000000     -18.82762146
Ne       0.00000000       0.00000000       0.82666667       0.00000000       0.00000000      18.82762146
2
Properties=species:S:1:pos:R:3:forces:R:3 energy=1.4450846984211696 pbc="F F F"
Ne       0.00000000       0.00000000       0.00000000       0.00000000       0.00000000     -10.79546356
Ne       0.00000000       0.00000000       0.88545455       0.00000000       0.00000000      10.79546356
2
Properties=species:S:1:pos:R:3:forces:R:3 energy=0.9719016533432685 pbc="F F F"
Ne       0.00000000       0.00000000       0.00000000       0.00000000       0.00000000      -5.71361446
Ne       0.00000000       0.00000000       0.94424242       0.00000000       0.00000000       5.71361446
2
Properties=species:S:1:pos:R:3:forces:R:3 energy=0.7330101258767409 pbc="F F F"
Ne       0.00000000       0.00000000       0.00000000       0.00000000       0.00000000      -2.69645166
Ne       0.00000000       0.00000000       1.00303030       0.00000000       0.00000000       2.69645166
2
Properties=species:S:1:pos:R:3:forces:R:3 energy=0.6274052895414142 pbc="F F F"
Ne       0.00000000       0.00000000       0.00000000       0.00000000       0.00000000      -1.08622646
Ne       0.00000000       0.00000000       1.06181818       0.00000000       0.00000000       1.08622646
2
Properties=species:S:1:pos:R:3:forces:R:3 energy=0.5871700044992969 pbc="F F F"
Ne       0.00000000       0.00000000       0.00000000       0.00000000       0.00000000      -0.40569597
Ne       0.00000000       0.00000000       1.12060606       0.00000000       0.00000000       0.40569597
2
Properties=species:S:1:pos:R:3:forces:R:3 energy=0.5682461107987372 pbc="F F F"
Ne       0.00000000       0.00000000       0.00000000       0.00000000       0.00000000      -0.30274692
Ne       0.00000000       0.00000000       1.17939394       0.00000000       0.00000000       0.30274692
2
Properties=species:S:1:pos:R:3:forces:R:3 energy=0.5486904000320951 pbc="F F F"
Ne       0.00000000       0.00000000       0.00000000       0.00000000       0.00000000      -0.37475193
Ne       0.00000000       0.00000000       1.23818182       0.00000000       0.00000000       0.37475193
2
Properties=species:S:1:pos:R:3:forces:R:3 energy=0.5231617229277773 pbc="F F F"
Ne       0.00000000       0.00000000       0.00000000       0.00000000       0.00000000      -0.49909192
Ne       0.00000000       0.00000000       1.29696970       0.00000000       0.00000000       0.49909192
2
Properties=species:S:1:pos:R:3:forces:R:3 energy=0.4897600473451402 pbc="F F F"
Ne       0.00000000       0.00000000       0.00000000       0.00000000       0.00000000      -0.63633150
Ne       0.00000000       0.00000000       1.35575758       0.00000000       0.00000000       0.63633150
2
Properties=species:S:1:pos:R:3:forces:R:3 energy=0.44876245475092824 pbc="F F F"
Ne       0.00000000       0.00000000       0.00000000       0.00000000       0.00000000      -0.75259602
Ne       0.00000000       0.00000000       1.41454545       0.00000000       0.00000000       0.75259602
2
Properties=species:S:1:pos:R:3:forces:R:3 energy=0.4021385564371376 pbc="F F F"
Ne       0.00000000       0.00000000       0.00000000       0.00000000       0.00000000      -0.82520819
Ne       0.00000000       0.00000000       1.47333333       0.00000000       0.00000000       0.82520819
2
Properties=species:S:1:pos:R:3:forces:R:3 energy=0.3527527147570432 pbc="F F F"
Ne       0.00000000       0.00000000       0.00000000       0.00000000       0.00000000      -0.84652877
Ne       0.00000000       0.00000000       1.53212121       0.00000000       0.00000000       0.84652877
2
Properties=species:S:1:pos:R:3:forces:R:3 energy=0.30351241552444724 pbc="F F F"
Ne       0.00000000       0.00000000       0.00000000       0.00000000       0.00000000      -0.82191855
Ne       0.00000000       0.00000000       1.59090909       0.00000000       0.00000000       0.82191855
2
Properties=species:S:1:pos:R:3:forces:R:3 energy=0.25677329405355376 pbc="F F F"
Ne       0.00000000       0.00000000       0.00000000       0.00000000       0.00000000      -0.76374066
Ne       0.00000000       0.00000000       1.64969697       0.00000000       0.00000000       0.76374066
2
Properties=species:S:1:pos:R:3:forces:R:3 energy=0.2141033532934427 pbc="F F F"
Ne       0.00000000       0.00000000       0.00000000       0.00000000       0.00000000      -0.68566173
Ne       0.00000000       0.00000000       1.70848485       0.00000000       0.00000000       0.68566173
2
Properties=species:S:1:pos:R:3:forces:R:3 energy=0.17631524013919372 pbc="F F F"
Ne       0.00000000       0.00000000       0.00000000       0.00000000       0.00000000      -0.59934789
Ne       0.00000000       0.00000000       1.76727273       0.00000000       0.00000000       0.59934789
2
Properties=species:S:1:pos:R:3:forces:R:3 energy=0.14362640152848638 pbc="F F F"
Ne       0.00000000       0.00000000       0.00000000       0.00000000       0.00000000      -0.51333505
Ne       0.00000000       0.00000000       1.82606061       0.00000000       0.00000000       0.51333505
2
Properties=species:S:1:pos:R:3:forces:R:3 energy=0.11584502541373558 pbc="F F F"
Ne       0.00000000       0.00000000       0.00000000       0.00000000       0.00000000      -0.43309757
Ne       0.00000000       0.00000000       1.88484848       0.00000000       0.00000000       0.43309757
2
Properties=species:S:1:pos:R:3:forces:R:3 energy=0.0925324504248351 pbc="F F F"
Ne       0.00000000       0.00000000       0.00000000       0.00000000       0.00000000      -0.36160472
Ne       0.00000000       0.00000000       1.94363636       0.00000000       0.00000000       0.36160472
2
Properties=species:S:1:pos:R:3:forces:R:3 energy=0.0731344117331531 pbc="F F F"
Ne       0.00000000       0.00000000       0.00000000       0.00000000       0.00000000      -0.29998535
Ne       0.00000000       0.00000000       2.00242424       0.00000000       0.00000000       0.29998535
2
Properties=species:S:1:pos:R:3:forces:R:3 energy=0.057069603654224116 pbc="F F F"
Ne       0.00000000       0.00000000       0.00000000       0.00000000       0.00000000      -0.24813333
Ne       0.00000000       0.00000000       2.06121212       0.00000000       0.00000000       0.24813333
2
Properties=species:S:1:pos:R:3:forces:R:3 energy=0.04378505110181508 pbc="F F F"
Ne       0.00000000       0.00000000       0.00000000       0.00000000       0.00000000      -0.20520294
Ne       0.00000000       0.00000000       2.12000000       0.00000000       0.00000000       0.20520294
2
Properties=species:S:1:pos:R:3:forces:R:3 energy=0.03279105781264194 pbc="F F F"
Ne       0.00000000       0.00000000       0.00000000       0.00000000       0.00000000      -0.17000337
Ne       0.00000000       0.00000000       2.17878788       0.00000000       0.00000000       0.17000337
2
Properties=species:S:1:pos:R:3:forces:R:3 energy=0.023670314417911602 pbc="F F F"
Ne       0.00000000       0.00000000       0.00000000       0.00000000       0.00000000      -0.14126168
Ne       0.00000000       0.00000000       2.23757576       0.00000000       0.00000000       0.14126168
2
Properties=species:S:1:pos:R:3:forces:R:3 energy=0.01607904671318286 pbc="F F F"
Ne       0.00000000       0.00000000       0.00000000       0.00000000       0.00000000      -0.11778985
Ne       0.00000000       0.00000000       2.29636364       0.00000000       0.00000000       0.11778985
2
Properties=species:S:1:pos:R:3:forces:R:3 energy=0.00973811905016483 pbc="F F F"
Ne       0.00000000       0.00000000       0.00000000       0.00000000       0.00000000      -0.09856053
Ne       0.00000000       0.00000000       2.35515152       0.00000000       0.00000000       0.09856053
2
Properties=species:S:1:pos:R:3:forces:R:3 energy=0.004424150399804051 pbc="F F F"
Ne       0.00000000       0.00000000       0.00000000       0.00000000       0.00000000      -0.08272880
Ne       0.00000000       0.00000000       2.41393939       0.00000000       0.00000000       0.08272880
2
Properties=species:S:1:pos:R:3:forces:R:3 energy=-4.201643213580346e-05 pbc="F F F"
Ne       0.00000000       0.00000000       0.00000000       0.00000000       0.00000000      -0.06961805
Ne       0.00000000       0.00000000       2.47272727       0.00000000       0.00000000       0.06961805
2
Properties=species:S:1:pos:R:3:forces:R:3 energy=-0.003804044772904611 pbc="F F F"
Ne       0.00000000       0.00000000       0.00000000       0.00000000       0.00000000      -0.05869563
Ne       0.00000000       0.00000000       2.53151515       0.00000000       0.00000000       0.05869563
2
Properties=species:S:1:pos:R:3:forces:R:3 energy=-0.006977805357252654 pbc="F F F"
Ne       0.00000000       0.00000000       0.00000000       0.00000000       0.00000000      -0.04954471
Ne       0.00000000       0.00000000       2.59030303       0.00000000       0.00000000       0.04954471
2
Properties=species:S:1:pos:R:3:forces:R:3 energy=-0.009657542620824116 pbc="F F F"
Ne       0.00000000       0.00000000       0.00000000       0.00000000       0.00000000      -0.04183886
Ne       0.00000000       0.00000000       2.64909091       0.00000000       0.00000000       0.04183886
2
Properties=species:S:1:pos:R:3:forces:R:3 energy=-0.011920345400246318 pbc="F F F"
Ne       0.00000000       0.00000000       0.00000000       0.00000000       0.00000000      -0.03532212
Ne       0.00000000       0.00000000       2.70787879       0.00000000       0.00000000       0.03532212
2
Properties=species:S:1:pos:R:3:forces:R:3 energy=-0.013829905318564595 pbc="F F F"
Ne       0.00000000       0.00000000       0.00000000       0.00000000       0.00000000      -0.02979192
Ne       0.00000000       0.00000000       2.76666667       0.00000000       0.00000000       0.02979192
2
Properties=species:S:1:pos:R:3:forces:R:3 energy=-0.015439301637729276 pbc="F F F"
Ne       0.00000000       0.00000000       0.00000000       0.00000000       0.00000000      -0.02508653
Ne       0.00000000       0.00000000       2.82545455       0.00000000       0.00000000       0.02508653
2
Properties=species:S:1:pos:R:3:forces:R:3 energy=-0.016793066529461453 pbc="F F F"
Ne       0.00000000       0.00000000       0.00000000       0.00000000       0.00000000      -0.02107552
Ne       0.00000000       0.00000000       2.88424242       0.00000000       0.00000000       0.02107552
2
Properties=species:S:1:pos:R:3:forces:R:3 energy=-0.017928812610133498 pbc="F F F"
Ne       0.00000000       0.00000000       0.00000000       0.00000000       0.00000000      -0.01765238
Ne       0.00000000       0.00000000       2.94303030       0.00000000       0.00000000       0.01765238
2
Properties=species:S:1:pos:R:3:forces:R:3 energy=-0.018878339866330394 pbc="F F F"
Ne       0.00000000       0.00000000       0.00000000       0.00000000       0.00000000      -0.01472956
Ne       0.00000000       0.00000000       3.00181818       0.00000000       0.00000000       0.01472956
2
Properties=species:S:1:pos:R:3:forces:R:3 energy=-0.019668964426545713 pbc="F F F"
Ne       0.00000000       0.00000000       0.00000000       0.00000000       0.00000000      -0.01223345
Ne       0.00000000       0.00000000       3.06060606       0.00000000       0.00000000       0.01223345
2
Properties=species:S:1:pos:R:3:forces:R:3 energy=-0.020323853405953444 pbc="F F F"
Ne       0.00000000       0.00000000       0.00000000       0.00000000       0.00000000      -0.01010228
Ne       0.00000000       0.00000000       3.11939394       0.00000000       0.00000000       0.01010228
2
Properties=species:S:1:pos:R:3:forces:R:3 energy=-0.020862880881468628 pbc="F F F"
Ne       0.00000000       0.00000000       0.00000000       0.00000000       0.00000000      -0.00828355
Ne       0.00000000       0.00000000       3.17818182       0.00000000       0.00000000       0.00828355
2
Properties=species:S:1:pos:R:3:forces:R:3 energy=-0.02130304033715031 pbc="F F F"
Ne       0.00000000       0.00000000       0.00000000       0.00000000       0.00000000      -0.00673241
Ne       0.00000000       0.00000000       3.23696970       0.00000000       0.00000000       0.00673241
2
Properties=species:S:1:pos:R:3:forces:R:3 energy=-0.021658933690419588 pbc="F F F"
Ne       0.00000000       0.00000000       0.00000000       0.00000000       0.00000000      -0.00541038
Ne       0.00000000       0.00000000       3.29575758       0.00000000       0.00000000       0.00541038
2
Properties=species:S:1:pos:R:3:forces:R:3 energy=-0.021943016978726818 pbc="F F F"
Ne       0.00000000       0.00000000       0.00000000       0.00000000       0.00000000      -0.00428505
Ne       0.00000000       0.00000000       3.35454545       0.00000000       0.00000000       0.00428505
2
Properties=species:S:1:pos:R:3:forces:R:3 energy=-0.02216605454523182 pbc="F F F"
Ne       0.00000000       0.00000000       0.00000000       0.00000000       0.00000000      -0.00332899
Ne       0.00000000       0.00000000       3.41333333       0.00000000       0.00000000       0.00332899
2
Properties=species:S:1:pos:R:3:forces:R:3 energy=-0.02233730641050691 pbc="F F F"
Ne       0.00000000       0.00000000       0.00000000       0.00000000       0.00000000      -0.00251979
Ne       0.00000000       0.00000000       3.47212121       0.00000000       0.00000000       0.00251979
2
Properties=species:S:1:pos:R:3:forces:R:3 energy=-0.022464846891600058 pbc="F F F"
Ne       0.00000000       0.00000000       0.00000000       0.00000000       0.00000000      -0.00183945
Ne       0.00000000       0.00000000       3.53090909       0.00000000       0.00000000       0.00183945
2
Properties=species:S:1:pos:R:3:forces:R:3 energy=-0.022555830835299325 pbc="F F F"
Ne       0.00000000       0.00000000       0.00000000       0.00000000       0.00000000      -0.00127417
Ne       0.00000000       0.00000000       3.58969697       0.00000000       0.00000000       0.00127417
2
Properties=species:S:1:pos:R:3:forces:R:3 energy=-0.02261670686113095 pbc="F F F"
Ne       0.00000000       0.00000000       0.00000000       0.00000000       0.00000000      -0.00081355
Ne       0.00000000       0.00000000       3.64848485       0.00000000       0.00000000       0.00081355
2
Properties=species:S:1:pos:R:3:forces:R:3 energy=-0.022653388518975984 pbc="F F F"
Ne       0.00000000       0.00000000       0.00000000       0.00000000       0.00000000      -0.00045003
Ne       0.00000000       0.00000000       3.70727273       0.00000000       0.00000000       0.00045003
2
Properties=species:S:1:pos:R:3:forces:R:3 energy=-0.022671405309321404 pbc="F F F"
Ne       0.00000000       0.00000000       0.00000000       0.00000000       0.00000000      -0.00017748
Ne       0.00000000       0.00000000       3.76606061       0.00000000       0.00000000       0.00017748
2
Properties=species:S:1:pos:R:3:forces:R:3 energy=-0.02267592359708482 pbc="F F F"
Ne       0.00000000       0.00000000       0.00000000       0.00000000       0.00000000       0.00000986
Ne       0.00000000       0.00000000       3.82484848       0.00000000       0.00000000      -0.00000986
2
Properties=species:S:1:pos:R:3:forces:R:3 energy=-0.022671789481203238 pbc="F F F"
Ne       0.00000000       0.00000000       0.00000000       0.00000000       0.00000000       0.00011863
Ne       0.00000000       0.00000000       3.88363636       0.00000000       0.00000000      -0.00011863
2
Properties=species:S:1:pos:R:3:forces:R:3 energy=-0.02266335278129343 pbc="F F F"
Ne       0.00000000       0.00000000       0.00000000       0.00000000       0.00000000       0.00015723
Ne       0.00000000       0.00000000       3.94242424       0.00000000       0.00000000      -0.00015723
2
Properties=species:S:1:pos:R:3:forces:R:3 energy=-0.022654471825883645 pbc="F F F"
Ne       0.00000000       0.00000000       0.00000000       0.00000000       0.00000000       0.00013592
Ne       0.00000000       0.00000000       4.00121212       0.00000000       0.00000000      -0.00013592
2
Properties=species:S:1:pos:R:3:forces:R:3 energy=-0.022648317934671237 pbc="F F F"
Ne       0.00000000       0.00000000       0.00000000       0.00000000       0.00000000       0.00006625
Ne       0.00000000       0.00000000       4.06000000       0.00000000       0.00000000      -0.00006625
2
Properties=species:S:1:pos:R:3:forces:R:3 energy=-0.022647407422222557 pbc="F F F"
Ne       0.00000000       0.00000000       0.00000000       0.00000000       0.00000000      -0.00004051
Ne       0.00000000       0.00000000       4.11878788       0.00000000       0.00000000       0.00004051
2
Properties=species:S:1:pos:R:3:forces:R:3 energy=-0.02265362611459375 pbc="F F F"
Ne       0.00000000       0.00000000       0.00000000       0.00000000       0.00000000      -0.00017502
Ne       0.00000000       0.00000000       4.17757576       0.00000000       0.00000000       0.00017502
2
Properties=species:S:1:pos:R:3:forces:R:3 energy=-0.02266842160300944 pbc="F F F"
Ne       0.00000000       0.00000000       0.00000000       0.00000000       0.00000000      -0.00033176
Ne       0.00000000       0.00000000       4.23636364       0.00000000       0.00000000       0.00033176
2
Properties=species:S:1:pos:R:3:forces:R:3 energy=-0.022693044205049334 pbc="F F F"
Ne       0.00000000       0.00000000       0.00000000       0.00000000       0.00000000      -0.00050959
Ne       0.00000000       0.00000000       4.29515152       0.00000000       0.00000000       0.00050959
2
Properties=species:S:1:pos:R:3:forces:R:3 energy=-0.022728800685616845 pbc="F F F"
Ne       0.00000000       0.00000000       0.00000000       0.00000000       0.00000000      -0.00071150
Ne       0.00000000       0.00000000       4.35393939       0.00000000       0.00000000       0.00071150
2
Properties=species:S:1:pos:R:3:forces:R:3 energy=-0.02277726859137364 pbc="F F F"
Ne       0.00000000       0.00000000       0.00000000       0.00000000       0.00000000      -0.00094249
Ne       0.00000000       0.00000000       4.41272727       0.00000000       0.00000000       0.00094249
2
Properties=species:S:1:pos:R:3:forces:R:3 energy=-0.02284026506774561 pbc="F F F"
Ne       0.00000000       0.00000000       0.00000000       0.00000000       0.00000000      -0.00120632
Ne       0.00000000       0.00000000       4.47151515       0.00000000       0.00000000       0.00120632
2
Properties=species:S:1:pos:R:3:forces:R:3 energy=-0.022919730223488814 pbc="F F F"
Ne       0.00000000       0.00000000       0.00000000       0.00000000       0.00000000      -0.00150195
Ne       0.00000000       0.00000000       4.53030303       0.00000000       0.00000000       0.00150195
2
Properties=species:S:1:pos:R:3:forces:R:3 energy=-0.0230173039455108 pbc="F F F"
Ne       0.00000000       0.00000000       0.00000000       0.00000000       0.00000000      -0.00181981
Ne       0.00000000       0.00000000       4.58909091       0.00000000       0.00000000       0.00181981
2
Properties=species:S:1:pos:R:3:forces:R:3 energy=-0.023133748670363868 pbc="F F F"
Ne       0.00000000       0.00000000       0.00000000       0.00000000       0.00000000      -0.00214001
Ne       0.00000000       0.00000000       4.64787879       0.00000000       0.00000000       0.00214001
2
Properties=species:S:1:pos:R:3:forces:R:3 energy=-0.02326838525025096 pbc="F F F"
Ne       0.00000000       0.00000000       0.00000000       0.00000000       0.00000000      -0.00243278
Ne       0.00000000       0.00000000       4.70666667       0.00000000       0.00000000       0.00243278
2
Properties=species:S:1:pos:R:3:forces:R:3 energy=-0.023418542235276122 pbc="F F F"
Ne       0.00000000       0.00000000       0.00000000       0.00000000       0.00000000      -0.00266229
Ne       0.00000000       0.00000000       4.76545455       0.00000000       0.00000000       0.00266229
2
Properties=species:S:1:pos:R:3:forces:R:3 energy=-0.02357948918944826 pbc="F F F"
Ne       0.00000000       0.00000000       0.00000000       0.00000000       0.00000000      -0.00279418
Ne       0.00000000       0.00000000       4.82424242       0.00000000       0.00000000       0.00279418
2
Properties=species:S:1:pos:R:3:forces:R:3 energy=-0.023744665573297033 pbc="F F F"
Ne       0.00000000       0.00000000       0.00000000       0.00000000       0.00000000      -0.00280470
Ne       0.00000000       0.00000000       4.88303030       0.00000000       0.00000000       0.00280470
2
Properties=species:S:1:pos:R:3:forces:R:3 energy=-0.023906783510546373 pbc="F F F"
Ne       0.00000000       0.00000000       0.00000000       0.00000000       0.00000000      -0.00269036
Ne       0.00000000       0.00000000       4.94181818       0.00000000       0.00000000       0.00269036
2
Properties=species:S:1:pos:R:3:forces:R:3 energy=-0.02405898674937507 pbc="F F F"
Ne       0.00000000       0.00000000       0.00000000       0.00000000       0.00000000      -0.00247348
Ne       0.00000000       0.00000000       5.00060606       0.00000000       0.00000000       0.00247348
2
Properties=species:S:1:pos:R:3:forces:R:3 energy=-0.02419650439432598 pbc="F F F"
Ne       0.00000000       0.00000000       0.00000000       0.00000000       0.00000000      -0.00220027
Ne       0.00000000       0.00000000       5.05939394       0.00000000       0.00000000       0.00220027
2
Properties=species:S:1:pos:R:3:forces:R:3 energy=-0.024317727571198836 pbc="F F F"
Ne       0.00000000       0.00000000       0.00000000       0.00000000       0.00000000      -0.00192887
Ne       0.00000000       0.00000000       5.11818182       0.00000000       0.00000000       0.00192887
2
Properties=species:S:1:pos:R:3:forces:R:3 energy=-0.024424276680264537 pbc="F F F"
Ne       0.00000000       0.00000000       0.00000000       0.00000000       0.00000000      -0.00170701
Ne       0.00000000       0.00000000       5.17696970       0.00000000       0.00000000       0.00170701
2
Properties=species:S:1:pos:R:3:forces:R:3 energy=-0.024519616634215095 pbc="F F F"
Ne       0.00000000       0.00000000       0.00000000       0.00000000       0.00000000      -0.00154437
Ne       0.00000000       0.00000000       5.23575758       0.00000000       0.00000000       0.00154437
2
Properties=species:S:1:pos:R:3:forces:R:3 energy=-0.02460610962144243 pbc="F F F"
Ne       0.00000000       0.00000000       0.00000000       0.00000000       0.00000000      -0.00139337
Ne       0.00000000       0.00000000       5.29454545       0.00000000       0.00000000       0.00139337
2
Properties=species:S:1:pos:R:3:forces:R:3 energy=-0.024681898393357205 pbc="F F F"
Ne       0.00000000       0.00000000       0.00000000       0.00000000       0.00000000      -0.00116465
Ne       0.00000000       0.00000000       5.35333333       0.00000000       0.00000000       0.00116465
2
Properties=species:S:1:pos:R:3:forces:R:3 energy=-0.024740639002808183 pbc="F F F"
Ne       0.00000000       0.00000000       0.00000000       0.00000000       0.00000000      -0.00081991
Ne       0.00000000       0.00000000       5.41212121       0.00000000       0.00000000       0.00081991
2
Properties=species:S:1:pos:R:3:forces:R:3 energy=-0.02477888614260172 pbc="F F F"
Ne       0.00000000       0.00000000       0.00000000       0.00000000       0.00000000      -0.00050812
Ne       0.00000000       0.00000000       5.47090909       0.00000000       0.00000000       0.00050812
2
Properties=species:S:1:pos:R:3:forces:R:3 energy=-0.02480460104033096 pbc="F F F"
Ne       0.00000000       0.00000000       0.00000000       0.00000000       0.00000000      -0.00039300
Ne       0.00000000       0.00000000       5.52969697       0.00000000       0.00000000       0.00039300
2
Properties=species:S:1:pos:R:3:forces:R:3 energy=-0.024825030657171756 pbc="F F F"
Ne       0.00000000       0.00000000       0.00000000       0.00000000       0.00000000      -0.00028067
Ne       0.00000000       0.00000000       5.58848485       0.00000000       0.00000000       0.00028067
2
Properties=species:S:1:pos:R:3:forces:R:3 energy=-0.024835364228421062 pbc="F F F"
Ne       0.00000000       0.00000000       0.00000000       0.00000000       0.00000000      -0.00006630
Ne       0.00000000       0.00000000       5.64727273       0.00000000       0.00000000       0.00006630
2
Properties=species:S:1:pos:R:3:forces:R:3 energy=-0.024835196293021018 pbc="F F F"
Ne       0.00000000       0.00000000       0.00000000       0.00000000       0.00000000       0.00002245
Ne       0.00000000       0.00000000       5.70606061       0.00000000       0.00000000      -0.00002245
2
Properties=species:S:1:pos:R:3:forces:R:3 energy=-0.024840944726031364 pbc="F F F"
Ne       0.00000000       0.00000000       0.00000000       0.00000000       0.00000000      -0.00028089
Ne       0.00000000       0.00000000       5.76484848       0.00000000       0.00000000       0.00028089
2
Properties=species:S:1:pos:R:3:forces:R:3 energy=-0.02486912815796577 pbc="F F F"
Ne       0.00000000       0.00000000       0.00000000       0.00000000       0.00000000      -0.00062199
Ne       0.00000000       0.00000000       5.82363636       0.00000000       0.00000000       0.00062199
2
Properties=species:S:1:pos:R:3:forces:R:3 energy=-0.02490347230523248 pbc="F F F"
Ne       0.00000000       0.00000000       0.00000000       0.00000000       0.00000000      -0.00046820
Ne       0.00000000       0.00000000       5.88242424       0.00000000       0.00000000       0.00046820
2
Properties=species:S:1:pos:R:3:forces:R:3 energy=-0.024919661182480766 pbc="F F F"
Ne       0.00000000       0.00000000       0.00000000       0.00000000       0.00000000      -0.00008440
Ne       0.00000000       0.00000000       5.94121212       0.00000000       0.00000000       0.00008440
2
Properties=species:S:1:pos:R:3:forces:R:3 energy=-0.02491790322534807 pbc="F F F"
Ne       0.00000000       0.00000000       0.00000000       0.00000000       0.00000000       0.00008638
Ne       0.00000000       0.00000000       6.00000000       0.00000000       0.00000000      -0.00008638
