2
Properties=species:S:1:pos:R:3:forces:R:3 energy=5958.061006024994 pbc="F F F"
Ni       0.00000000       0.00000000       0.00000000       0.00000000       0.00000000  -59243.23046875
Ni       0.00000000       0.00000000       0.18000000       0.00000000       0.00000000   59243.23046875
2
Properties=species:S:1:pos:R:3:forces:R:3 energy=3797.5041212593687 pbc="F F F"
Ni       0.00000000       0.00000000       0.00000000       0.00000000       0.00000000  -21782.44726562
Ni       0.00000000       0.00000000       0.23878788       0.00000000       0.00000000   21782.44726562
2
Properties=species:S:1:pos:R:3:forces:R:3 energy=2927.8017286812437 pbc="F F F"
Ni       0.00000000       0.00000000       0.00000000       0.00000000       0.00000000   -9835.17480469
Ni       0.00000000       0.00000000       0.29757576       0.00000000       0.00000000    9835.17480469
2
Properties=species:S:1:pos:R:3:forces:R:3 energy=2505.5995802469115 pbc="F F F"
Ni       0.00000000       0.00000000       0.00000000       0.00000000       0.00000000   -5283.58935547
Ni       0.00000000       0.00000000       0.35636364       0.00000000       0.00000000    5283.58935547
2
Properties=species:S:1:pos:R:3:forces:R:3 energy=2245.384736503247 pbc="F F F"
Ni       0.00000000       0.00000000       0.00000000       0.00000000       0.00000000   -3870.51196289
Ni       0.00000000       0.00000000       0.41515152       0.00000000       0.00000000    3870.51196289
2
Properties=species:S:1:pos:R:3:forces:R:3 energy=2024.8233351518988 pbc="F F F"
Ni       0.00000000       0.00000000       0.00000000       0.00000000       0.00000000   -3793.77783203
Ni       0.00000000       0.00000000       0.47393939       0.00000000       0.00000000    3793.77783203
2
Properties=species:S:1:pos:R:3:forces:R:3 energy=1785.2580275632217 pbc="F F F"
Ni       0.00000000       0.00000000       0.00000000       0.00000000       0.00000000   -4440.26464844
Ni       0.00000000       0.00000000       0.53272727       0.00000000       0.00000000    4440.26464844
2
Properties=species:S:1:pos:R:3:forces:R:3 energy=1497.4460158919892 pbc="F F F"
Ni       0.00000000       0.00000000       0.00000000       0.00000000       0.00000000   -5364.21923828
Ni       0.00000000       0.00000000       0.59151515       0.00000000       0.00000000    5364.21923828
2
Properties=species:S:1:pos:R:3:forces:R:3 energy=1151.0247513290828 pbc="F F F"
Ni       0.00000000       0.00000000       0.00000000       0.00000000       0.00000000   -6187.68652344
Ni       0.00000000       0.00000000       0.65030303       0.00000000       0.00000000    6187.68652344
2
Properties=species:S:1:pos:R:3:forces:R:3 energy=800.8067338808385 pbc="F F F"
Ni       0.00000000       0.00000000       0.00000000       0.00000000       0.00000000   -5412.80566406
Ni       0.00000000       0.00000000       0.70909091       0.00000000       0.00000000    5412.80566406
2
Properties=species:S:1:pos:R:3:forces:R:3 energy=531.3345661084935 pbc="F F F"
Ni       0.00000000       0.00000000       0.00000000       0.00000000       0.00000000   -3793.98242188
Ni       0.00000000       0.00000000       0.76787879       0.00000000       0.00000000    3793.98242188
2
Properties=species:S:1:pos:R:3:forces:R:3 energy=344.4180014585269 pbc="F F F"
Ni       0.00000000       0.00000000       0.00000000       0.00000000       0.00000000   -2667.88989258
Ni       0.00000000       0.00000000       0.82666667       0.00000000       0.00000000    2667.88989258
2
Properties=species:S:1:pos:R:3:forces:R:3 energy=216.94793961448437 pbc="F F F"
Ni       0.00000000       0.00000000       0.00000000       0.00000000       0.00000000   -1635.21289062
Ni       0.00000000       0.00000000       0.88545455       0.00000000       0.00000000    1635.21289062
2
Properties=species:S:1:pos:R:3:forces:R:3 energy=141.45801099814489 pbc="F F F"
Ni       0.00000000       0.00000000       0.00000000       0.00000000       0.00000000   -1020.04058838
Ni       0.00000000       0.00000000       0.94424242       0.00000000       0.00000000    1020.04058838
2
Properties=species:S:1:pos:R:3:forces:R:3 energy=93.69059389188907 pbc="F F F"
Ni       0.00000000       0.00000000       0.00000000       0.00000000       0.00000000    -632.73895264
Ni       0.00000000       0.00000000       1.00303030       0.00000000       0.00000000     632.73895264
2
Properties=species:S:1:pos:R:3:forces:R:3 energy=64.18094378803438 pbc="F F F"
Ni       0.00000000       0.00000000       0.00000000       0.00000000       0.00000000    -393.18103027
Ni       0.00000000       0.00000000       1.06181818       0.00000000       0.00000000     393.18103027
2
Properties=species:S:1:pos:R:3:forces:R:3 energy=45.23935586442124 pbc="F F F"
Ni       0.00000000       0.00000000       0.00000000       0.00000000       0.00000000    -265.17459106
Ni       0.00000000       0.00000000       1.12060606       0.00000000       0.00000000     265.17459106
2
Properties=species:S:1:pos:R:3:forces:R:3 energy=32.008469379408375 pbc="F F F"
Ni       0.00000000       0.00000000       0.00000000       0.00000000       0.00000000    -189.90287781
Ni       0.00000000       0.00000000       1.17939394       0.00000000       0.00000000     189.90287781
2
Properties=species:S:1:pos:R:3:forces:R:3 energy=22.457244239547887 pbc="F F F"
Ni       0.00000000       0.00000000       0.00000000       0.00000000       0.00000000    -138.24761963
Ni       0.00000000       0.00000000       1.23818182       0.00000000       0.00000000     138.24761963
2
Properties=species:S:1:pos:R:3:forces:R:3 energy=15.445993977576531 pbc="F F F"
Ni       0.00000000       0.00000000       0.00000000       0.00000000       0.00000000    -102.35155487
Ni       0.00000000       0.00000000       1.29696970       0.00000000       0.00000000     102.35155487
2
Properties=species:S:1:pos:R:3:forces:R:3 energy=10.228862463622383 pbc="F F F"
Ni       0.00000000       0.00000000       0.00000000       0.00000000       0.00000000     -76.44899750
Ni       0.00000000       0.00000000       1.35575758       0.00000000       0.00000000      76.44899750
2
Properties=species:S:1:pos:R:3:forces:R:3 energy=6.331514144423667 pbc="F F F"
Ni       0.00000000       0.00000000       0.00000000       0.00000000       0.00000000     -57.03382111
Ni       0.00000000       0.00000000       1.41454545       0.00000000       0.00000000      57.03382111
2
Properties=species:S:1:pos:R:3:forces:R:3 energy=3.4320554325019152 pbc="F F F"
Ni       0.00000000       0.00000000       0.00000000       0.00000000       0.00000000     -42.28074265
Ni       0.00000000       0.00000000       1.47333333       0.00000000       0.00000000      42.28074265
2
Properties=species:S:1:pos:R:3:forces:R:3 energy=1.291598242384692 pbc="F F F"
Ni       0.00000000       0.00000000       0.00000000       0.00000000       0.00000000     -31.04464531
Ni       0.00000000       0.00000000       1.53212121       0.00000000       0.00000000      31.04464531
2
Properties=species:S:1:pos:R:3:forces:R:3 energy=-0.2706137947680146 pbc="F F F"
Ni       0.00000000       0.00000000       0.00000000       0.00000000       0.00000000     -22.50250053
Ni       0.00000000       0.00000000       1.59090909       0.00000000       0.00000000      22.50250053
2
Properties=species:S:1:pos:R:3:forces:R:3 energy=-1.3964941636578585 pbc="F F F"
Ni       0.00000000       0.00000000       0.00000000       0.00000000       0.00000000     -16.12220001
Ni       0.00000000       0.00000000       1.64969697       0.00000000       0.00000000      16.12220001
2
Properties=species:S:1:pos:R:3:forces:R:3 energy=-2.199534423166683 pbc="F F F"
Ni       0.00000000       0.00000000       0.00000000       0.00000000       0.00000000     -11.44469261
Ni       0.00000000       0.00000000       1.70848485       0.00000000       0.00000000      11.44469261
2
Properties=species:S:1:pos:R:3:forces:R:3 energy=-2.767119351138137 pbc="F F F"
Ni       0.00000000       0.00000000       0.00000000       0.00000000       0.00000000      -8.04477406
Ni       0.00000000       0.00000000       1.76727273       0.00000000       0.00000000       8.04477406
2
Properties=species:S:1:pos:R:3:forces:R:3 energy=-3.163077695240879 pbc="F F F"
Ni       0.00000000       0.00000000       0.00000000       0.00000000       0.00000000      -5.54969883
Ni       0.00000000       0.00000000       1.82606061       0.00000000       0.00000000       5.54969883
2
Properties=species:S:1:pos:R:3:forces:R:3 energy=-3.431628452475841 pbc="F F F"
Ni       0.00000000       0.00000000       0.00000000       0.00000000       0.00000000      -3.67043328
Ni       0.00000000       0.00000000       1.88484848       0.00000000       0.00000000       3.67043328
2
Properties=species:S:1:pos:R:3:forces:R:3 energy=-3.6029809656842966 pbc="F F F"
Ni       0.00000000       0.00000000       0.00000000       0.00000000       0.00000000      -2.22011042
Ni       0.00000000       0.00000000       1.94363636       0.00000000       0.00000000       2.22011042
2
Properties=species:S:1:pos:R:3:forces:R:3 energy=-3.6990489208129596 pbc="F F F"
Ni       0.00000000       0.00000000       0.00000000       0.00000000       0.00000000      -1.09748352
Ni       0.00000000       0.00000000       2.00242424       0.00000000       0.00000000       1.09748352
2
Properties=species:S:1:pos:R:3:forces:R:3 energy=-3.7373916942691774 pbc="F F F"
Ni       0.00000000       0.00000000       0.00000000       0.00000000       0.00000000      -0.24946608
Ni       0.00000000       0.00000000       2.06121212       0.00000000       0.00000000       0.24946608
2
Properties=species:S:1:pos:R:3:forces:R:3 energy=-3.7330173274985 pbc="F F F"
Ni       0.00000000       0.00000000       0.00000000       0.00000000       0.00000000       0.36195531
Ni       0.00000000       0.00000000       2.12000000       0.00000000       0.00000000      -0.36195531
2
Properties=species:S:1:pos:R:3:forces:R:3 energy=-3.6987229562159825 pbc="F F F"
Ni       0.00000000       0.00000000       0.00000000       0.00000000       0.00000000       0.77500504
Ni       0.00000000       0.00000000       2.17878788       0.00000000       0.00000000      -0.77500504
2
Properties=species:S:1:pos:R:3:forces:R:3 energy=-3.6450300234796935 pbc="F F F"
Ni       0.00000000       0.00000000       0.00000000       0.00000000       0.00000000       1.02798414
Ni       0.00000000       0.00000000       2.23757576       0.00000000       0.00000000      -1.02798414
2
Properties=species:S:1:pos:R:3:forces:R:3 energy=-3.580309969529932 pbc="F F F"
Ni       0.00000000       0.00000000       0.00000000       0.00000000       0.00000000       1.15596318
Ni       0.00000000       0.00000000       2.29636364       0.00000000       0.00000000      -1.15596318
2
Properties=species:S:1:pos:R:3:forces:R:3 energy=-3.510725441763738 pbc="F F F"
Ni       0.00000000       0.00000000       0.00000000       0.00000000       0.00000000       1.20348263
Ni       0.00000000       0.00000000       2.35515152       0.00000000       0.00000000      -1.20348263
2
Properties=species:S:1:pos:R:3:forces:R:3 energy=-3.4387815987739483 pbc="F F F"
Ni       0.00000000       0.00000000       0.00000000       0.00000000       0.00000000       1.25201583
Ni       0.00000000       0.00000000       2.41393939       0.00000000       0.00000000      -1.25201583
2
Properties=species:S:1:pos:R:3:forces:R:3 energy=-3.3623972924926604 pbc="F F F"
Ni       0.00000000       0.00000000       0.00000000       0.00000000       0.00000000       1.35191667
Ni       0.00000000       0.00000000       2.47272727       0.00000000       0.00000000      -1.35191667
2
Properties=species:S:1:pos:R:3:forces:R:3 energy=-3.280147608921397 pbc="F F F"
Ni       0.00000000       0.00000000       0.00000000       0.00000000       0.00000000       1.43735063
Ni       0.00000000       0.00000000       2.53151515       0.00000000       0.00000000      -1.43735063
2
Properties=species:S:1:pos:R:3:forces:R:3 energy=-3.1946076702412247 pbc="F F F"
Ni       0.00000000       0.00000000       0.00000000       0.00000000       0.00000000       1.46350265
Ni       0.00000000       0.00000000       2.59030303       0.00000000       0.00000000      -1.46350265
2
Properties=species:S:1:pos:R:3:forces:R:3 energy=-3.1089228878233865 pbc="F F F"
Ni       0.00000000       0.00000000       0.00000000       0.00000000       0.00000000       1.44621289
Ni       0.00000000       0.00000000       2.64909091       0.00000000       0.00000000      -1.44621289
2
Properties=species:S:1:pos:R:3:forces:R:3 energy=-3.0250471419043983 pbc="F F F"
Ni       0.00000000       0.00000000       0.00000000       0.00000000       0.00000000       1.40412796
Ni       0.00000000       0.00000000       2.70787879       0.00000000       0.00000000      -1.40412796
2
Properties=species:S:1:pos:R:3:forces:R:3 energy=-2.944132878376144 pbc="F F F"
Ni       0.00000000       0.00000000       0.00000000       0.00000000       0.00000000       1.34656370
Ni       0.00000000       0.00000000       2.76666667       0.00000000       0.00000000      -1.34656370
2
Properties=species:S:1:pos:R:3:forces:R:3 energy=-2.8669184617986034 pbc="F F F"
Ni       0.00000000       0.00000000       0.00000000       0.00000000       0.00000000       1.27907383
Ni       0.00000000       0.00000000       2.82545455       0.00000000       0.00000000      -1.27907383
2
Properties=species:S:1:pos:R:3:forces:R:3 energy=-2.7938471537825387 pbc="F F F"
Ni       0.00000000       0.00000000       0.00000000       0.00000000       0.00000000       1.20633209
Ni       0.00000000       0.00000000       2.88424242       0.00000000       0.00000000      -1.20633209
2
Properties=species:S:1:pos:R:3:forces:R:3 energy=-2.725103795763237 pbc="F F F"
Ni       0.00000000       0.00000000       0.00000000       0.00000000       0.00000000       1.13246298
Ni       0.00000000       0.00000000       2.94303030       0.00000000       0.00000000      -1.13246298
2
Properties=species:S:1:pos:R:3:forces:R:3 energy=-2.6606565113267213 pbc="F F F"
Ni       0.00000000       0.00000000       0.00000000       0.00000000       0.00000000       1.06060815
Ni       0.00000000       0.00000000       3.00181818       0.00000000       0.00000000      -1.06060815
2
Properties=species:S:1:pos:R:3:forces:R:3 energy=-2.6003256688881837 pbc="F F F"
Ni       0.00000000       0.00000000       0.00000000       0.00000000       0.00000000       0.99263018
Ni       0.00000000       0.00000000       3.06060606       0.00000000       0.00000000      -0.99263018
2
Properties=species:S:1:pos:R:3:forces:R:3 energy=-2.5438584780369924 pbc="F F F"
Ni       0.00000000       0.00000000       0.00000000       0.00000000       0.00000000       0.92918295
Ni       0.00000000       0.00000000       3.11939394       0.00000000       0.00000000      -0.92918295
2
Properties=species:S:1:pos:R:3:forces:R:3 energy=-2.490990090385291 pbc="F F F"
Ni       0.00000000       0.00000000       0.00000000       0.00000000       0.00000000       0.87008536
Ni       0.00000000       0.00000000       3.17818182       0.00000000       0.00000000      -0.87008536
2
Properties=species:S:1:pos:R:3:forces:R:3 energy=-2.441483592868747 pbc="F F F"
Ni       0.00000000       0.00000000       0.00000000       0.00000000       0.00000000       0.81475204
Ni       0.00000000       0.00000000       3.23696970       0.00000000       0.00000000      -0.81475204
2
Properties=species:S:1:pos:R:3:forces:R:3 energy=-2.395134588384711 pbc="F F F"
Ni       0.00000000       0.00000000       0.00000000       0.00000000       0.00000000       0.76254046
Ni       0.00000000       0.00000000       3.29575758       0.00000000       0.00000000      -0.76254046
2
Properties=species:S:1:pos:R:3:forces:R:3 energy=-2.3517759411571237 pbc="F F F"
Ni       0.00000000       0.00000000       0.00000000       0.00000000       0.00000000       0.71294117
Ni       0.00000000       0.00000000       3.35454545       0.00000000       0.00000000      -0.71294117
2
Properties=species:S:1:pos:R:3:forces:R:3 energy=-2.311264902133247 pbc="F F F"
Ni       0.00000000       0.00000000       0.00000000       0.00000000       0.00000000       0.66563499
Ni       0.00000000       0.00000000       3.41333333       0.00000000       0.00000000      -0.66563499
2
Properties=species:S:1:pos:R:3:forces:R:3 energy=-2.273471260082697 pbc="F F F"
Ni       0.00000000       0.00000000       0.00000000       0.00000000       0.00000000       0.62047613
Ni       0.00000000       0.00000000       3.47212121       0.00000000       0.00000000      -0.62047613
2
Properties=species:S:1:pos:R:3:forces:R:3 energy=-2.238270507486124 pbc="F F F"
Ni       0.00000000       0.00000000       0.00000000       0.00000000       0.00000000       0.57743776
Ni       0.00000000       0.00000000       3.53090909       0.00000000       0.00000000      -0.57743776
2
Properties=species:S:1:pos:R:3:forces:R:3 energy=-2.2055366966493883 pbc="F F F"
Ni       0.00000000       0.00000000       0.00000000       0.00000000       0.00000000       0.53654361
Ni       0.00000000       0.00000000       3.58969697       0.00000000       0.00000000      -0.53654361
2
Properties=species:S:1:pos:R:3:forces:R:3 energy=-2.1751434884125387 pbc="F F F"
Ni       0.00000000       0.00000000       0.00000000       0.00000000       0.00000000       0.49781349
Ni       0.00000000       0.00000000       3.64848485       0.00000000       0.00000000      -0.49781349
2
Properties=species:S:1:pos:R:3:forces:R:3 energy=-2.146964152149815 pbc="F F F"
Ni       0.00000000       0.00000000       0.00000000       0.00000000       0.00000000       0.46122086
Ni       0.00000000       0.00000000       3.70727273       0.00000000       0.00000000      -0.46122086
2
Properties=species:S:1:pos:R:3:forces:R:3 energy=-2.1208747158963286 pbc="F F F"
Ni       0.00000000       0.00000000       0.00000000       0.00000000       0.00000000       0.42666987
Ni       0.00000000       0.00000000       3.76606061       0.00000000       0.00000000      -0.42666987
2
Properties=species:S:1:pos:R:3:forces:R:3 energy=-2.09676091216508 pbc="F F F"
Ni       0.00000000       0.00000000       0.00000000       0.00000000       0.00000000       0.39400920
Ni       0.00000000       0.00000000       3.82484848       0.00000000       0.00000000      -0.39400920
2
Properties=species:S:1:pos:R:3:forces:R:3 energy=-2.074515743076012 pbc="F F F"
Ni       0.00000000       0.00000000       0.00000000       0.00000000       0.00000000       0.36304528
Ni       0.00000000       0.00000000       3.88363636       0.00000000       0.00000000      -0.36304528
2
Properties=species:S:1:pos:R:3:forces:R:3 energy=-2.054045992517425 pbc="F F F"
Ni       0.00000000       0.00000000       0.00000000       0.00000000       0.00000000       0.33358449
Ni       0.00000000       0.00000000       3.94242424       0.00000000       0.00000000      -0.33358449
2
Properties=species:S:1:pos:R:3:forces:R:3 energy=-2.035268310078403 pbc="F F F"
Ni       0.00000000       0.00000000       0.00000000       0.00000000       0.00000000       0.30546361
Ni       0.00000000       0.00000000       4.00121212       0.00000000       0.00000000      -0.30546361
2
Properties=species:S:1:pos:R:3:forces:R:3 energy=-2.0181070451067162 pbc="F F F"
Ni       0.00000000       0.00000000       0.00000000       0.00000000       0.00000000       0.27857322
Ni       0.00000000       0.00000000       4.06000000       0.00000000       0.00000000      -0.27857322
2
Properties=species:S:1:pos:R:3:forces:R:3 energy=-2.0024913528397 pbc="F F F"
Ni       0.00000000       0.00000000       0.00000000       0.00000000       0.00000000       0.25288022
Ni       0.00000000       0.00000000       4.11878788       0.00000000       0.00000000      -0.25288022
2
Properties=species:S:1:pos:R:3:forces:R:3 energy=-1.9883502454668083 pbc="F F F"
Ni       0.00000000       0.00000000       0.00000000       0.00000000       0.00000000       0.22841521
Ni       0.00000000       0.00000000       4.17757576       0.00000000       0.00000000      -0.22841521
2
Properties=species:S:1:pos:R:3:forces:R:3 energy=-1.975609399653291 pbc="F F F"
Ni       0.00000000       0.00000000       0.00000000       0.00000000       0.00000000       0.20526646
Ni       0.00000000       0.00000000       4.23636364       0.00000000       0.00000000      -0.20526646
2
Properties=species:S:1:pos:R:3:forces:R:3 energy=-1.9641875715899613 pbc="F F F"
Ni       0.00000000       0.00000000       0.00000000       0.00000000       0.00000000       0.18355338
Ni       0.00000000       0.00000000       4.29515152       0.00000000       0.00000000      -0.18355338
2
Properties=species:S:1:pos:R:3:forces:R:3 energy=-1.9539974441295085 pbc="F F F"
Ni       0.00000000       0.00000000       0.00000000       0.00000000       0.00000000       0.16340178
Ni       0.00000000       0.00000000       4.35393939       0.00000000       0.00000000      -0.16340178
2
Properties=species:S:1:pos:R:3:forces:R:3 energy=-1.9449432906139246 pbc="F F F"
Ni       0.00000000       0.00000000       0.00000000       0.00000000       0.00000000       0.14490891
Ni       0.00000000       0.00000000       4.41272727       0.00000000       0.00000000      -0.14490891
2
Properties=species:S:1:pos:R:3:forces:R:3 energy=-1.936925935315285 pbc="F F F"
Ni       0.00000000       0.00000000       0.00000000       0.00000000       0.00000000       0.12812759
Ni       0.00000000       0.00000000       4.47151515       0.00000000       0.00000000      -0.12812759
2
Properties=species:S:1:pos:R:3:forces:R:3 energy=-1.9298450921040773 pbc="F F F"
Ni       0.00000000       0.00000000       0.00000000       0.00000000       0.00000000       0.11304373
Ni       0.00000000       0.00000000       4.53030303       0.00000000       0.00000000      -0.11304373
2
Properties=species:S:1:pos:R:3:forces:R:3 energy=-1.9236032211600729 pbc="F F F"
Ni       0.00000000       0.00000000       0.00000000       0.00000000       0.00000000       0.09956938
Ni       0.00000000       0.00000000       4.58909091       0.00000000       0.00000000      -0.09956938
2
Properties=species:S:1:pos:R:3:forces:R:3 energy=-1.918109989233242 pbc="F F F"
Ni       0.00000000       0.00000000       0.00000000       0.00000000       0.00000000       0.08754073
Ni       0.00000000       0.00000000       4.64787879       0.00000000       0.00000000      -0.08754073
2
Properties=species:S:1:pos:R:3:forces:R:3 energy=-1.9132864641436447 pbc="F F F"
Ni       0.00000000       0.00000000       0.00000000       0.00000000       0.00000000       0.07673819
Ni       0.00000000       0.00000000       4.70666667       0.00000000       0.00000000      -0.07673819
2
Properties=species:S:1:pos:R:3:forces:R:3 energy=-1.9090680970135379 pbc="F F F"
Ni       0.00000000       0.00000000       0.00000000       0.00000000       0.00000000       0.06692135
Ni       0.00000000       0.00000000       4.76545455       0.00000000       0.00000000      -0.06692135
2
Properties=species:S:1:pos:R:3:forces:R:3 energy=-1.9054029943166535 pbc="F F F"
Ni       0.00000000       0.00000000       0.00000000       0.00000000       0.00000000       0.05787753
Ni       0.00000000       0.00000000       4.82424242       0.00000000       0.00000000      -0.05787753
2
Properties=species:S:1:pos:R:3:forces:R:3 energy=-1.9022504220104117 pbc="F F F"
Ni       0.00000000       0.00000000       0.00000000       0.00000000       0.00000000       0.04948654
Ni       0.00000000       0.00000000       4.88303030       0.00000000       0.00000000      -0.04948654
2
Properties=species:S:1:pos:R:3:forces:R:3 energy=-1.89957159157458 pbc="F F F"
Ni       0.00000000       0.00000000       0.00000000       0.00000000       0.00000000       0.04177132
Ni       0.00000000       0.00000000       4.94181818       0.00000000       0.00000000      -0.04177132
2
Properties=species:S:1:pos:R:3:forces:R:3 energy=-1.89732214149052 pbc="F F F"
Ni       0.00000000       0.00000000       0.00000000       0.00000000       0.00000000       0.03491744
Ni       0.00000000       0.00000000       5.00060606       0.00000000       0.00000000      -0.03491744
2
Properties=species:S:1:pos:R:3:forces:R:3 energy=-1.8954432262228187 pbc="F F F"
Ni       0.00000000       0.00000000       0.00000000       0.00000000       0.00000000       0.02922446
Ni       0.00000000       0.00000000       5.05939394       0.00000000       0.00000000      -0.02922446
2
Properties=species:S:1:pos:R:3:forces:R:3 energy=-1.893857650836872 pbc="F F F"
Ni       0.00000000       0.00000000       0.00000000       0.00000000       0.00000000       0.02497908
Ni       0.00000000       0.00000000       5.11818182       0.00000000       0.00000000      -0.02497908
2
Properties=species:S:1:pos:R:3:forces:R:3 energy=-1.892476113815491 pbc="F F F"
Ni       0.00000000       0.00000000       0.00000000       0.00000000       0.00000000       0.02226879
Ni       0.00000000       0.00000000       5.17696970       0.00000000       0.00000000      -0.02226879
2
Properties=species:S:1:pos:R:3:forces:R:3 energy=-1.8912147973487303 pbc="F F F"
Ni       0.00000000       0.00000000       0.00000000       0.00000000       0.00000000       0.02079698
Ni       0.00000000       0.00000000       5.23575758       0.00000000       0.00000000      -0.02079698
2
Properties=species:S:1:pos:R:3:forces:R:3 energy=-1.8900209636530512 pbc="F F F"
Ni       0.00000000       0.00000000       0.00000000       0.00000000       0.00000000       0.01982396
Ni       0.00000000       0.00000000       5.29454545       0.00000000       0.00000000      -0.01982396
2
Properties=species:S:1:pos:R:3:forces:R:3 energy=-1.888892344487871 pbc="F F F"
Ni       0.00000000       0.00000000       0.00000000       0.00000000       0.00000000       0.01844411
Ni       0.00000000       0.00000000       5.35333333       0.00000000       0.00000000      -0.01844411
2
Properties=species:S:1:pos:R:3:forces:R:3 energy=-1.8878657303258979 pbc="F F F"
Ni       0.00000000       0.00000000       0.00000000       0.00000000       0.00000000       0.01644032
Ni       0.00000000       0.00000000       5.41212121       0.00000000       0.00000000      -0.01644032
2
Properties=species:S:1:pos:R:3:forces:R:3 energy=-1.8869475758754557 pbc="F F F"
Ni       0.00000000       0.00000000       0.00000000       0.00000000       0.00000000       0.01502849
Ni       0.00000000       0.00000000       5.47090909       0.00000000       0.00000000      -0.01502849
2
Properties=species:S:1:pos:R:3:forces:R:3 energy=-1.8860725595972283 pbc="F F F"
Ni       0.00000000       0.00000000       0.00000000       0.00000000       0.00000000       0.01481660
Ni       0.00000000       0.00000000       5.52969697       0.00000000       0.00000000      -0.01481660
2
Properties=species:S:1:pos:R:3:forces:R:3 energy=-1.8852228009133667 pbc="F F F"
Ni       0.00000000       0.00000000       0.00000000       0.00000000       0.00000000       0.01379702
Ni       0.00000000       0.00000000       5.58848485       0.00000000       0.00000000      -0.01379702
2
Properties=species:S:1:pos:R:3:forces:R:3 energy=-1.884480431088222 pbc="F F F"
Ni       0.00000000       0.00000000       0.00000000       0.00000000       0.00000000       0.01134881
Ni       0.00000000       0.00000000       5.64727273       0.00000000       0.00000000      -0.01134881
2
Properties=species:S:1:pos:R:3:forces:R:3 energy=-1.8838707902469867 pbc="F F F"
Ni       0.00000000       0.00000000       0.00000000       0.00000000       0.00000000       0.00984755
Ni       0.00000000       0.00000000       5.70606061       0.00000000       0.00000000      -0.00984755
2
Properties=species:S:1:pos:R:3:forces:R:3 energy=-1.8832458961274017 pbc="F F F"
Ni       0.00000000       0.00000000       0.00000000       0.00000000       0.00000000       0.01201789
Ni       0.00000000       0.00000000       5.76484848       0.00000000       0.00000000      -0.01201789
2
Properties=species:S:1:pos:R:3:forces:R:3 energy=-1.8824419908272518 pbc="F F F"
Ni       0.00000000       0.00000000       0.00000000       0.00000000       0.00000000       0.01493912
Ni       0.00000000       0.00000000       5.82363636       0.00000000       0.00000000      -0.01493912
2
Properties=species:S:1:pos:R:3:forces:R:3 energy=-1.881567718382456 pbc="F F F"
Ni       0.00000000       0.00000000       0.00000000       0.00000000       0.00000000       0.01418460
Ni       0.00000000       0.00000000       5.88242424       0.00000000       0.00000000      -0.01418460
2
Properties=species:S:1:pos:R:3:forces:R:3 energy=-1.8808143043563224 pbc="F F F"
Ni       0.00000000       0.00000000       0.00000000       0.00000000       0.00000000       0.01139171
Ni       0.00000000       0.00000000       5.94121212       0.00000000       0.00000000      -0.01139171
2
Properties=species:S:1:pos:R:3:forces:R:3 energy=-1.8802041386961525 pbc="F F F"
Ni       0.00000000       0.00000000       0.00000000       0.00000000       0.00000000       0.00971282
Ni       0.00000000       0.00000000       6.00000000       0.00000000       0.00000000      -0.00971282
