2
Properties=species:S:1:pos:R:3:forces:R:3 energy=1144.262495310841 pbc="F F F"
O        0.00000000       0.00000000       0.00000000       0.00000000       0.00000000   -7920.96582031
O        0.00000000       0.00000000       0.18000000       0.00000000       0.00000000    7920.96582031
2
Properties=species:S:1:pos:R:3:forces:R:3 energy=829.7440626952373 pbc="F F F"
O        0.00000000       0.00000000       0.00000000       0.00000000       0.00000000   -3668.14428711
O        0.00000000       0.00000000       0.23878788       0.00000000       0.00000000    3668.14428711
2
Properties=species:S:1:pos:R:3:forces:R:3 energy=651.8187697280712 pbc="F F F"
O        0.00000000       0.00000000       0.00000000       0.00000000       0.00000000   -2693.40649414
O        0.00000000       0.00000000       0.29757576       0.00000000       0.00000000    2693.40649414
2
Properties=species:S:1:pos:R:3:forces:R:3 energy=490.0648634828229 pbc="F F F"
O        0.00000000       0.00000000       0.00000000       0.00000000       0.00000000   -2864.04956055
O        0.00000000       0.00000000       0.35636364       0.00000000       0.00000000    2864.04956055
2
Properties=species:S:1:pos:R:3:forces:R:3 energy=334.5857680349259 pbc="F F F"
O        0.00000000       0.00000000       0.00000000       0.00000000       0.00000000   -2309.51757812
O        0.00000000       0.00000000       0.41515152       0.00000000       0.00000000    2309.51757812
2
Properties=species:S:1:pos:R:3:forces:R:3 energy=221.31634361862407 pbc="F F F"
O        0.00000000       0.00000000       0.00000000       0.00000000       0.00000000   -1524.57788086
O        0.00000000       0.00000000       0.47393939       0.00000000       0.00000000    1524.57788086
2
Properties=species:S:1:pos:R:3:forces:R:3 energy=147.93353115980577 pbc="F F F"
O        0.00000000       0.00000000       0.00000000       0.00000000       0.00000000   -1048.23217773
O        0.00000000       0.00000000       0.53272727       0.00000000       0.00000000    1048.23217773
2
Properties=species:S:1:pos:R:3:forces:R:3 energy=95.64581913628967 pbc="F F F"
O        0.00000000       0.00000000       0.00000000       0.00000000       0.00000000    -732.36407471
O        0.00000000       0.00000000       0.59151515       0.00000000       0.00000000     732.36407471
2
Properties=species:S:1:pos:R:3:forces:R:3 energy=60.12557465669433 pbc="F F F"
O        0.00000000       0.00000000       0.00000000       0.00000000       0.00000000    -497.65560913
O        0.00000000       0.00000000       0.65030303       0.00000000       0.00000000     497.65560913
2
Properties=species:S:1:pos:R:3:forces:R:3 energy=35.809225814846776 pbc="F F F"
O        0.00000000       0.00000000       0.00000000       0.00000000       0.00000000    -334.47119141
O        0.00000000       0.00000000       0.70909091       0.00000000       0.00000000     334.47119141
2
Properties=species:S:1:pos:R:3:forces:R:3 energy=19.768641535741786 pbc="F F F"
O        0.00000000       0.00000000       0.00000000       0.00000000       0.00000000    -220.60556030
O        0.00000000       0.00000000       0.76787879       0.00000000       0.00000000     220.60556030
2
Properties=species:S:1:pos:R:3:forces:R:3 energy=9.104834086520702 pbc="F F F"
O        0.00000000       0.00000000       0.00000000       0.00000000       0.00000000    -147.10588074
O        0.00000000       0.00000000       0.82666667       0.00000000       0.00000000     147.10588074
2
Properties=species:S:1:pos:R:3:forces:R:3 energy=1.9817870981511723 pbc="F F F"
O        0.00000000       0.00000000       0.00000000       0.00000000       0.00000000     -98.39822388
O        0.00000000       0.00000000       0.88545455       0.00000000       0.00000000      98.39822388
2
Properties=species:S:1:pos:R:3:forces:R:3 energy=-2.7440833877070987 pbc="F F F"
O        0.00000000       0.00000000       0.00000000       0.00000000       0.00000000     -64.30257416
O        0.00000000       0.00000000       0.94424242       0.00000000       0.00000000      64.30257416
2
Properties=species:S:1:pos:R:3:forces:R:3 energy=-5.775644093248902 pbc="F F F"
O        0.00000000       0.00000000       0.00000000       0.00000000       0.00000000     -40.28313065
O        0.00000000       0.00000000       1.00303030       0.00000000       0.00000000      40.28313065
2
Properties=species:S:1:pos:R:3:forces:R:3 energy=-7.626825507940474 pbc="F F F"
O        0.00000000       0.00000000       0.00000000       0.00000000       0.00000000     -23.74903679
O        0.00000000       0.00000000       1.06181818       0.00000000       0.00000000      23.74903679
2
Properties=species:S:1:pos:R:3:forces:R:3 energy=-8.672076355757868 pbc="F F F"
O        0.00000000       0.00000000       0.00000000       0.00000000       0.00000000     -12.54608536
O        0.00000000       0.00000000       1.12060606       0.00000000       0.00000000      12.54608536
2
Properties=species:S:1:pos:R:3:forces:R:3 energy=-9.173877402574202 pbc="F F F"
O        0.00000000       0.00000000       0.00000000       0.00000000       0.00000000      -5.03191376
O        0.00000000       0.00000000       1.17939394       0.00000000       0.00000000       5.03191376
2
Properties=species:S:1:pos:R:3:forces:R:3 energy=-9.313784617330914 pbc="F F F"
O        0.00000000       0.00000000       0.00000000       0.00000000       0.00000000      -0.08651462
O        0.00000000       0.00000000       1.23818182       0.00000000       0.00000000       0.08651462
2
Properties=species:S:1:pos:R:3:forces:R:3 energy=-9.219559531825801 pbc="F F F"
O        0.00000000       0.00000000       0.00000000       0.00000000       0.00000000       3.04476357
O        0.00000000       0.00000000       1.29696970       0.00000000       0.00000000      -3.04476357
2
Properties=species:S:1:pos:R:3:forces:R:3 energy=-8.978450444240506 pbc="F F F"
O        0.00000000       0.00000000       0.00000000       0.00000000       0.00000000       5.02226591
O        0.00000000       0.00000000       1.35575758       0.00000000       0.00000000      -5.02226591
2
Properties=species:S:1:pos:R:3:forces:R:3 energy=-8.640094053155748 pbc="F F F"
O        0.00000000       0.00000000       0.00000000       0.00000000       0.00000000       6.42471457
O        0.00000000       0.00000000       1.41454545       0.00000000       0.00000000      -6.42471457
2
Properties=species:S:1:pos:R:3:forces:R:3 energy=-8.22829683691408 pbc="F F F"
O        0.00000000       0.00000000       0.00000000       0.00000000       0.00000000       7.55527020
O        0.00000000       0.00000000       1.47333333       0.00000000       0.00000000      -7.55527020
2
Properties=species:S:1:pos:R:3:forces:R:3 energy=-7.754372742976708 pbc="F F F"
O        0.00000000       0.00000000       0.00000000       0.00000000       0.00000000       8.54505825
O        0.00000000       0.00000000       1.53212121       0.00000000       0.00000000      -8.54505825
2
Properties=species:S:1:pos:R:3:forces:R:3 energy=-7.2288034186209575 pbc="F F F"
O        0.00000000       0.00000000       0.00000000       0.00000000       0.00000000       9.25527096
O        0.00000000       0.00000000       1.59090909       0.00000000       0.00000000      -9.25527096
2
Properties=species:S:1:pos:R:3:forces:R:3 energy=-6.680201335553554 pbc="F F F"
O        0.00000000       0.00000000       0.00000000       0.00000000       0.00000000       9.26482582
O        0.00000000       0.00000000       1.64969697       0.00000000       0.00000000      -9.26482582
2
Properties=species:S:1:pos:R:3:forces:R:3 energy=-6.15454874096538 pbc="F F F"
O        0.00000000       0.00000000       0.00000000       0.00000000       0.00000000       8.52839088
O        0.00000000       0.00000000       1.70848485       0.00000000       0.00000000      -8.52839088
2
Properties=species:S:1:pos:R:3:forces:R:3 energy=-5.682788118717128 pbc="F F F"
O        0.00000000       0.00000000       0.00000000       0.00000000       0.00000000       7.50860500
O        0.00000000       0.00000000       1.76727273       0.00000000       0.00000000      -7.50860500
2
Properties=species:S:1:pos:R:3:forces:R:3 energy=-5.2719224829536495 pbc="F F F"
O        0.00000000       0.00000000       0.00000000       0.00000000       0.00000000       6.47007942
O        0.00000000       0.00000000       1.82606061       0.00000000       0.00000000      -6.47007942
2
Properties=species:S:1:pos:R:3:forces:R:3 energy=-4.921684358406425 pbc="F F F"
O        0.00000000       0.00000000       0.00000000       0.00000000       0.00000000       5.45437241
O        0.00000000       0.00000000       1.88484848       0.00000000       0.00000000      -5.45437241
2
Properties=species:S:1:pos:R:3:forces:R:3 energy=-4.628491087106849 pbc="F F F"
O        0.00000000       0.00000000       0.00000000       0.00000000       0.00000000       4.54664612
O        0.00000000       0.00000000       1.94363636       0.00000000       0.00000000      -4.54664612
2
Properties=species:S:1:pos:R:3:forces:R:3 energy=-4.3835066175947075 pbc="F F F"
O        0.00000000       0.00000000       0.00000000       0.00000000       0.00000000       3.81936669
O        0.00000000       0.00000000       2.00242424       0.00000000       0.00000000      -3.81936669
2
Properties=species:S:1:pos:R:3:forces:R:3 energy=-4.176150515961679 pbc="F F F"
O        0.00000000       0.00000000       0.00000000       0.00000000       0.00000000       3.25770712
O        0.00000000       0.00000000       2.06121212       0.00000000       0.00000000      -3.25770712
2
Properties=species:S:1:pos:R:3:forces:R:3 energy=-3.998460821077486 pbc="F F F"
O        0.00000000       0.00000000       0.00000000       0.00000000       0.00000000       2.79952502
O        0.00000000       0.00000000       2.12000000       0.00000000       0.00000000      -2.79952502
2
Properties=species:S:1:pos:R:3:forces:R:3 energy=-3.846028677450562 pbc="F F F"
O        0.00000000       0.00000000       0.00000000       0.00000000       0.00000000       2.39181948
O        0.00000000       0.00000000       2.17878788       0.00000000       0.00000000      -2.39181948
2
Properties=species:S:1:pos:R:3:forces:R:3 energy=-3.716715669247168 pbc="F F F"
O        0.00000000       0.00000000       0.00000000       0.00000000       0.00000000       2.01156497
O        0.00000000       0.00000000       2.23757576       0.00000000       0.00000000      -2.01156497
2
Properties=species:S:1:pos:R:3:forces:R:3 energy=-3.608995325930306 pbc="F F F"
O        0.00000000       0.00000000       0.00000000       0.00000000       0.00000000       1.65821135
O        0.00000000       0.00000000       2.29636364       0.00000000       0.00000000      -1.65821135
2
Properties=species:S:1:pos:R:3:forces:R:3 energy=-3.5210787921889457 pbc="F F F"
O        0.00000000       0.00000000       0.00000000       0.00000000       0.00000000       1.33911264
O        0.00000000       0.00000000       2.35515152       0.00000000       0.00000000      -1.33911264
2
Properties=species:S:1:pos:R:3:forces:R:3 energy=-3.450759722773119 pbc="F F F"
O        0.00000000       0.00000000       0.00000000       0.00000000       0.00000000       1.06008744
O        0.00000000       0.00000000       2.41393939       0.00000000       0.00000000      -1.06008744
2
Properties=species:S:1:pos:R:3:forces:R:3 energy=-3.395612719611637 pbc="F F F"
O        0.00000000       0.00000000       0.00000000       0.00000000       0.00000000       0.82306194
O        0.00000000       0.00000000       2.47272727       0.00000000       0.00000000      -0.82306194
2
Properties=species:S:1:pos:R:3:forces:R:3 energy=-3.3531826797214572 pbc="F F F"
O        0.00000000       0.00000000       0.00000000       0.00000000       0.00000000       0.62708479
O        0.00000000       0.00000000       2.53151515       0.00000000       0.00000000      -0.62708479
2
Properties=species:S:1:pos:R:3:forces:R:3 energy=-3.321126226526329 pbc="F F F"
O        0.00000000       0.00000000       0.00000000       0.00000000       0.00000000       0.46966755
O        0.00000000       0.00000000       2.59030303       0.00000000       0.00000000      -0.46966755
2
Properties=species:S:1:pos:R:3:forces:R:3 energy=-3.2972751537494593 pbc="F F F"
O        0.00000000       0.00000000       0.00000000       0.00000000       0.00000000       0.34723404
O        0.00000000       0.00000000       2.64909091       0.00000000       0.00000000      -0.34723404
2
Properties=species:S:1:pos:R:3:forces:R:3 energy=-3.27970227566672 pbc="F F F"
O        0.00000000       0.00000000       0.00000000       0.00000000       0.00000000       0.25524855
O        0.00000000       0.00000000       2.70787879       0.00000000       0.00000000      -0.25524855
2
Properties=species:S:1:pos:R:3:forces:R:3 energy=-3.2667696019148265 pbc="F F F"
O        0.00000000       0.00000000       0.00000000       0.00000000       0.00000000       0.18846695
O        0.00000000       0.00000000       2.76666667       0.00000000       0.00000000      -0.18846695
2
Properties=species:S:1:pos:R:3:forces:R:3 energy=-3.257156482763004 pbc="F F F"
O        0.00000000       0.00000000       0.00000000       0.00000000       0.00000000       0.14142919
O        0.00000000       0.00000000       2.82545455       0.00000000       0.00000000      -0.14142919
2
Properties=species:S:1:pos:R:3:forces:R:3 energy=-3.2498550930192076 pbc="F F F"
O        0.00000000       0.00000000       0.00000000       0.00000000       0.00000000       0.10903002
O        0.00000000       0.00000000       2.88424242       0.00000000       0.00000000      -0.10903002
2
Properties=species:S:1:pos:R:3:forces:R:3 energy=-3.244136087479421 pbc="F F F"
O        0.00000000       0.00000000       0.00000000       0.00000000       0.00000000       0.08692970
O        0.00000000       0.00000000       2.94303030       0.00000000       0.00000000      -0.08692970
2
Properties=species:S:1:pos:R:3:forces:R:3 energy=-3.2394989995677808 pbc="F F F"
O        0.00000000       0.00000000       0.00000000       0.00000000       0.00000000       0.07175006
O        0.00000000       0.00000000       3.00181818       0.00000000       0.00000000      -0.07175006
2
Properties=species:S:1:pos:R:3:forces:R:3 energy=-3.235612357883488 pbc="F F F"
O        0.00000000       0.00000000       0.00000000       0.00000000       0.00000000       0.06106804
O        0.00000000       0.00000000       3.06060606       0.00000000       0.00000000      -0.06106804
2
Properties=species:S:1:pos:R:3:forces:R:3 energy=-3.232262629382862 pbc="F F F"
O        0.00000000       0.00000000       0.00000000       0.00000000       0.00000000       0.05328572
O        0.00000000       0.00000000       3.11939394       0.00000000       0.00000000      -0.05328572
2
Properties=species:S:1:pos:R:3:forces:R:3 energy=-3.229309338477735 pbc="F F F"
O        0.00000000       0.00000000       0.00000000       0.00000000       0.00000000       0.04745121
O        0.00000000       0.00000000       3.17818182       0.00000000       0.00000000      -0.04745121
2
Properties=species:S:1:pos:R:3:forces:R:3 energy=-3.226655219571601 pbc="F F F"
O        0.00000000       0.00000000       0.00000000       0.00000000       0.00000000       0.04307112
O        0.00000000       0.00000000       3.23696970       0.00000000       0.00000000      -0.04307112
2
Properties=species:S:1:pos:R:3:forces:R:3 energy=-3.2242206282640296 pbc="F F F"
O        0.00000000       0.00000000       0.00000000       0.00000000       0.00000000       0.03994730
O        0.00000000       0.00000000       3.29575758       0.00000000       0.00000000      -0.03994730
2
Properties=species:S:1:pos:R:3:forces:R:3 energy=-3.2219344386790607 pbc="F F F"
O        0.00000000       0.00000000       0.00000000       0.00000000       0.00000000       0.03804301
O        0.00000000       0.00000000       3.35454545       0.00000000       0.00000000      -0.03804301
2
Properties=species:S:1:pos:R:3:forces:R:3 energy=-3.219723495630951 pbc="F F F"
O        0.00000000       0.00000000       0.00000000       0.00000000       0.00000000       0.03738946
O        0.00000000       0.00000000       3.41333333       0.00000000       0.00000000      -0.03738946
2
Properties=species:S:1:pos:R:3:forces:R:3 energy=-3.2175132902821297 pbc="F F F"
O        0.00000000       0.00000000       0.00000000       0.00000000       0.00000000       0.03801501
O        0.00000000       0.00000000       3.47212121       0.00000000       0.00000000      -0.03801501
2
Properties=species:S:1:pos:R:3:forces:R:3 energy=-3.215229113826255 pbc="F F F"
O        0.00000000       0.00000000       0.00000000       0.00000000       0.00000000       0.03990170
O        0.00000000       0.00000000       3.53090909       0.00000000       0.00000000      -0.03990170
2
Properties=species:S:1:pos:R:3:forces:R:3 energy=-3.2127989078197596 pbc="F F F"
O        0.00000000       0.00000000       0.00000000       0.00000000       0.00000000       0.04295461
O        0.00000000       0.00000000       3.58969697       0.00000000       0.00000000      -0.04295461
2
Properties=species:S:1:pos:R:3:forces:R:3 energy=-3.210159208807221 pbc="F F F"
O        0.00000000       0.00000000       0.00000000       0.00000000       0.00000000       0.04698688
O        0.00000000       0.00000000       3.64848485       0.00000000       0.00000000      -0.04698688
2
Properties=species:S:1:pos:R:3:forces:R:3 energy=-3.207260645213933 pbc="F F F"
O        0.00000000       0.00000000       0.00000000       0.00000000       0.00000000       0.05171903
O        0.00000000       0.00000000       3.70727273       0.00000000       0.00000000      -0.05171903
2
Properties=species:S:1:pos:R:3:forces:R:3 energy=-3.2040715082788958 pbc="F F F"
O        0.00000000       0.00000000       0.00000000       0.00000000       0.00000000       0.05679736
O        0.00000000       0.00000000       3.76606061       0.00000000       0.00000000      -0.05679736
2
Properties=species:S:1:pos:R:3:forces:R:3 energy=-3.2005835069668653 pbc="F F F"
O        0.00000000       0.00000000       0.00000000       0.00000000       0.00000000       0.06183482
O        0.00000000       0.00000000       3.82484848       0.00000000       0.00000000      -0.06183482
2
Properties=species:S:1:pos:R:3:forces:R:3 energy=-3.1968093956618975 pbc="F F F"
O        0.00000000       0.00000000       0.00000000       0.00000000       0.00000000       0.06645963
O        0.00000000       0.00000000       3.88363636       0.00000000       0.00000000      -0.06645963
2
Properties=species:S:1:pos:R:3:forces:R:3 energy=-3.1927832405023606 pbc="F F F"
O        0.00000000       0.00000000       0.00000000       0.00000000       0.00000000       0.07036874
O        0.00000000       0.00000000       3.94242424       0.00000000       0.00000000      -0.07036874
2
Properties=species:S:1:pos:R:3:forces:R:3 energy=-3.1885537644495514 pbc="F F F"
O        0.00000000       0.00000000       0.00000000       0.00000000       0.00000000       0.07336564
O        0.00000000       0.00000000       4.00121212       0.00000000       0.00000000      -0.07336564
2
Properties=species:S:1:pos:R:3:forces:R:3 energy=-3.184176985218122 pbc="F F F"
O        0.00000000       0.00000000       0.00000000       0.00000000       0.00000000       0.07537414
O        0.00000000       0.00000000       4.06000000       0.00000000       0.00000000      -0.07537414
2
Properties=species:S:1:pos:R:3:forces:R:3 energy=-3.179710507683368 pbc="F F F"
O        0.00000000       0.00000000       0.00000000       0.00000000       0.00000000       0.07642295
O        0.00000000       0.00000000       4.11878788       0.00000000       0.00000000      -0.07642295
2
Properties=species:S:1:pos:R:3:forces:R:3 energy=-3.175208067180399 pbc="F F F"
O        0.00000000       0.00000000       0.00000000       0.00000000       0.00000000       0.07661469
O        0.00000000       0.00000000       4.17757576       0.00000000       0.00000000      -0.07661469
2
Properties=species:S:1:pos:R:3:forces:R:3 energy=-3.17071644164496 pbc="F F F"
O        0.00000000       0.00000000       0.00000000       0.00000000       0.00000000       0.07609196
O        0.00000000       0.00000000       4.23636364       0.00000000       0.00000000      -0.07609196
2
Properties=species:S:1:pos:R:3:forces:R:3 energy=-3.1662723702878837 pbc="F F F"
O        0.00000000       0.00000000       0.00000000       0.00000000       0.00000000       0.07501578
O        0.00000000       0.00000000       4.29515152       0.00000000       0.00000000      -0.07501578
2
Properties=species:S:1:pos:R:3:forces:R:3 energy=-3.161903997569813 pbc="F F F"
O        0.00000000       0.00000000       0.00000000       0.00000000       0.00000000       0.07355987
O        0.00000000       0.00000000       4.35393939       0.00000000       0.00000000      -0.07355987
2
Properties=species:S:1:pos:R:3:forces:R:3 energy=-3.1576275384099186 pbc="F F F"
O        0.00000000       0.00000000       0.00000000       0.00000000       0.00000000       0.07190873
O        0.00000000       0.00000000       4.41272727       0.00000000       0.00000000      -0.07190873
2
Properties=species:S:1:pos:R:3:forces:R:3 energy=-3.1534492015716307 pbc="F F F"
O        0.00000000       0.00000000       0.00000000       0.00000000       0.00000000       0.07024953
O        0.00000000       0.00000000       4.47151515       0.00000000       0.00000000      -0.07024953
2
Properties=species:S:1:pos:R:3:forces:R:3 energy=-3.1493647144093955 pbc="F F F"
O        0.00000000       0.00000000       0.00000000       0.00000000       0.00000000       0.06873735
O        0.00000000       0.00000000       4.53030303       0.00000000       0.00000000      -0.06873735
2
Properties=species:S:1:pos:R:3:forces:R:3 energy=-3.1453631424166644 pbc="F F F"
O        0.00000000       0.00000000       0.00000000       0.00000000       0.00000000       0.06744193
O        0.00000000       0.00000000       4.58909091       0.00000000       0.00000000      -0.06744193
2
Properties=species:S:1:pos:R:3:forces:R:3 energy=-3.1414321400773204 pbc="F F F"
O        0.00000000       0.00000000       0.00000000       0.00000000       0.00000000       0.06630437
O        0.00000000       0.00000000       4.64787879       0.00000000       0.00000000      -0.06630437
2
Properties=species:S:1:pos:R:3:forces:R:3 energy=-3.137568440293213 pbc="F F F"
O        0.00000000       0.00000000       0.00000000       0.00000000       0.00000000       0.06510960
O        0.00000000       0.00000000       4.70666667       0.00000000       0.00000000      -0.06510960
2
Properties=species:S:1:pos:R:3:forces:R:3 energy=-3.133784771789768 pbc="F F F"
O        0.00000000       0.00000000       0.00000000       0.00000000       0.00000000       0.06351350
O        0.00000000       0.00000000       4.76545455       0.00000000       0.00000000      -0.06351350
2
Properties=species:S:1:pos:R:3:forces:R:3 energy=-3.1301165355291647 pbc="F F F"
O        0.00000000       0.00000000       0.00000000       0.00000000       0.00000000       0.06110666
O        0.00000000       0.00000000       4.82424242       0.00000000       0.00000000      -0.06110666
2
Properties=species:S:1:pos:R:3:forces:R:3 energy=-3.1266234744323445 pbc="F F F"
O        0.00000000       0.00000000       0.00000000       0.00000000       0.00000000       0.05752239
O        0.00000000       0.00000000       4.88303030       0.00000000       0.00000000      -0.05752239
2
Properties=species:S:1:pos:R:3:forces:R:3 energy=-3.1233806103051838 pbc="F F F"
O        0.00000000       0.00000000       0.00000000       0.00000000       0.00000000       0.05255818
O        0.00000000       0.00000000       4.94181818       0.00000000       0.00000000      -0.05255818
2
Properties=species:S:1:pos:R:3:forces:R:3 energy=-3.1204689476422875 pbc="F F F"
O        0.00000000       0.00000000       0.00000000       0.00000000       0.00000000       0.04631636
O        0.00000000       0.00000000       5.00060606       0.00000000       0.00000000      -0.04631636
2
Properties=species:S:1:pos:R:3:forces:R:3 energy=-3.117950200861629 pbc="F F F"
O        0.00000000       0.00000000       0.00000000       0.00000000       0.00000000       0.03929439
O        0.00000000       0.00000000       5.05939394       0.00000000       0.00000000      -0.03929439
2
Properties=species:S:1:pos:R:3:forces:R:3 energy=-3.1158467637780927 pbc="F F F"
O        0.00000000       0.00000000       0.00000000       0.00000000       0.00000000       0.03237943
O        0.00000000       0.00000000       5.11818182       0.00000000       0.00000000      -0.03237943
2
Properties=species:S:1:pos:R:3:forces:R:3 energy=-3.1141204908944036 pbc="F F F"
O        0.00000000       0.00000000       0.00000000       0.00000000       0.00000000       0.02662078
O        0.00000000       0.00000000       5.17696970       0.00000000       0.00000000      -0.02662078
2
Properties=species:S:1:pos:R:3:forces:R:3 energy=-3.1126791345542735 pbc="F F F"
O        0.00000000       0.00000000       0.00000000       0.00000000       0.00000000       0.02275551
O        0.00000000       0.00000000       5.23575758       0.00000000       0.00000000      -0.02275551
2
Properties=species:S:1:pos:R:3:forces:R:3 energy=-3.11140971983118 pbc="F F F"
O        0.00000000       0.00000000       0.00000000       0.00000000       0.00000000       0.02065932
O        0.00000000       0.00000000       5.29454545       0.00000000       0.00000000      -0.02065932
2
Properties=species:S:1:pos:R:3:forces:R:3 energy=-3.1102352896846104 pbc="F F F"
O        0.00000000       0.00000000       0.00000000       0.00000000       0.00000000       0.01932979
O        0.00000000       0.00000000       5.35333333       0.00000000       0.00000000      -0.01932979
2
Properties=species:S:1:pos:R:3:forces:R:3 energy=-3.1091313536146417 pbc="F F F"
O        0.00000000       0.00000000       0.00000000       0.00000000       0.00000000       0.01842343
O        0.00000000       0.00000000       5.41212121       0.00000000       0.00000000      -0.01842343
2
Properties=species:S:1:pos:R:3:forces:R:3 energy=-3.108010014500096 pbc="F F F"
O        0.00000000       0.00000000       0.00000000       0.00000000       0.00000000       0.02053802
O        0.00000000       0.00000000       5.47090909       0.00000000       0.00000000      -0.02053802
2
Properties=species:S:1:pos:R:3:forces:R:3 energy=-3.1066269858229143 pbc="F F F"
O        0.00000000       0.00000000       0.00000000       0.00000000       0.00000000       0.02678752
O        0.00000000       0.00000000       5.52969697       0.00000000       0.00000000      -0.02678752
2
Properties=species:S:1:pos:R:3:forces:R:3 energy=-3.10491799864986 pbc="F F F"
O        0.00000000       0.00000000       0.00000000       0.00000000       0.00000000       0.03032910
O        0.00000000       0.00000000       5.58848485       0.00000000       0.00000000      -0.03032910
2
Properties=species:S:1:pos:R:3:forces:R:3 energy=-3.1031821444804075 pbc="F F F"
O        0.00000000       0.00000000       0.00000000       0.00000000       0.00000000       0.02796433
O        0.00000000       0.00000000       5.64727273       0.00000000       0.00000000      -0.02796433
2
Properties=species:S:1:pos:R:3:forces:R:3 energy=-3.101675609022756 pbc="F F F"
O        0.00000000       0.00000000       0.00000000       0.00000000       0.00000000       0.02350410
O        0.00000000       0.00000000       5.70606061       0.00000000       0.00000000      -0.02350410
2
Properties=species:S:1:pos:R:3:forces:R:3 energy=-3.10031460281751 pbc="F F F"
O        0.00000000       0.00000000       0.00000000       0.00000000       0.00000000       0.02369467
O        0.00000000       0.00000000       5.76484848       0.00000000       0.00000000      -0.02369467
2
Properties=species:S:1:pos:R:3:forces:R:3 energy=-3.0988799227698887 pbc="F F F"
O        0.00000000       0.00000000       0.00000000       0.00000000       0.00000000       0.02403416
O        0.00000000       0.00000000       5.82363636       0.00000000       0.00000000      -0.02403416
2
Properties=species:S:1:pos:R:3:forces:R:3 energy=-3.0976816623068073 pbc="F F F"
O        0.00000000       0.00000000       0.00000000       0.00000000       0.00000000       0.01560296
O        0.00000000       0.00000000       5.88242424       0.00000000       0.00000000      -0.01560296
2
Properties=species:S:1:pos:R:3:forces:R:3 energy=-3.0970942955931067 pbc="F F F"
O        0.00000000       0.00000000       0.00000000       0.00000000       0.00000000       0.00475669
O        0.00000000       0.00000000       5.94121212       0.00000000       0.00000000      -0.00475669
2
Properties=species:S:1:pos:R:3:forces:R:3 energy=-3.0969918622100048 pbc="F F F"
O        0.00000000       0.00000000       0.00000000       0.00000000       0.00000000       0.00021801
O        0.00000000       0.00000000       6.00000000       0.00000000       0.00000000      -0.00021801
