2
Properties=species:S:1:pos:R:3:forces:R:3 energy=1836.7118860570004 pbc="F F F"
P        0.00000000       0.00000000       0.00000000       0.00000000       0.00000000  -21842.82812500
P        0.00000000       0.00000000       0.18000000       0.00000000       0.00000000   21842.82812500
2
Properties=species:S:1:pos:R:3:forces:R:3 energy=1024.1711145726254 pbc="F F F"
P        0.00000000       0.00000000       0.00000000       0.00000000       0.00000000   -8363.58593750
P        0.00000000       0.00000000       0.23878788       0.00000000       0.00000000    8363.58593750
2
Properties=species:S:1:pos:R:3:forces:R:3 energy=689.7892176063046 pbc="F F F"
P        0.00000000       0.00000000       0.00000000       0.00000000       0.00000000   -3743.33129883
P        0.00000000       0.00000000       0.29757576       0.00000000       0.00000000    3743.33129883
2
Properties=species:S:1:pos:R:3:forces:R:3 energy=532.7406336282653 pbc="F F F"
P        0.00000000       0.00000000       0.00000000       0.00000000       0.00000000   -1881.43542480
P        0.00000000       0.00000000       0.35636364       0.00000000       0.00000000    1881.43542480
2
Properties=species:S:1:pos:R:3:forces:R:3 energy=440.239351908991 pbc="F F F"
P        0.00000000       0.00000000       0.00000000       0.00000000       0.00000000   -1330.43115234
P        0.00000000       0.00000000       0.41515152       0.00000000       0.00000000    1330.43115234
2
Properties=species:S:1:pos:R:3:forces:R:3 energy=370.5788905180558 pbc="F F F"
P        0.00000000       0.00000000       0.00000000       0.00000000       0.00000000   -1075.31457520
P        0.00000000       0.00000000       0.47393939       0.00000000       0.00000000    1075.31457520
2
Properties=species:S:1:pos:R:3:forces:R:3 energy=310.76797749864255 pbc="F F F"
P        0.00000000       0.00000000       0.00000000       0.00000000       0.00000000    -970.46502686
P        0.00000000       0.00000000       0.53272727       0.00000000       0.00000000     970.46502686
2
Properties=species:S:1:pos:R:3:forces:R:3 energy=256.8521450931529 pbc="F F F"
P        0.00000000       0.00000000       0.00000000       0.00000000       0.00000000    -863.97204590
P        0.00000000       0.00000000       0.59151515       0.00000000       0.00000000     863.97204590
2
Properties=species:S:1:pos:R:3:forces:R:3 energy=211.00847158350317 pbc="F F F"
P        0.00000000       0.00000000       0.00000000       0.00000000       0.00000000    -688.19299316
P        0.00000000       0.00000000       0.65030303       0.00000000       0.00000000     688.19299316
2
Properties=species:S:1:pos:R:3:forces:R:3 energy=174.22557393839534 pbc="F F F"
P        0.00000000       0.00000000       0.00000000       0.00000000       0.00000000    -566.61059570
P        0.00000000       0.00000000       0.70909091       0.00000000       0.00000000     566.61059570
2
Properties=species:S:1:pos:R:3:forces:R:3 energy=144.52794255862423 pbc="F F F"
P        0.00000000       0.00000000       0.00000000       0.00000000       0.00000000    -449.26144409
P        0.00000000       0.00000000       0.76787879       0.00000000       0.00000000     449.26144409
2
Properties=species:S:1:pos:R:3:forces:R:3 energy=120.13737927169443 pbc="F F F"
P        0.00000000       0.00000000       0.00000000       0.00000000       0.00000000    -389.51043701
P        0.00000000       0.00000000       0.82666667       0.00000000       0.00000000     389.51043701
2
Properties=species:S:1:pos:R:3:forces:R:3 energy=98.42259753887555 pbc="F F F"
P        0.00000000       0.00000000       0.00000000       0.00000000       0.00000000    -348.60415649
P        0.00000000       0.00000000       0.88545455       0.00000000       0.00000000     348.60415649
2
Properties=species:S:1:pos:R:3:forces:R:3 energy=79.08398348355861 pbc="F F F"
P        0.00000000       0.00000000       0.00000000       0.00000000       0.00000000    -310.82077026
P        0.00000000       0.00000000       0.94424242       0.00000000       0.00000000     310.82077026
2
Properties=species:S:1:pos:R:3:forces:R:3 energy=61.82004264040346 pbc="F F F"
P        0.00000000       0.00000000       0.00000000       0.00000000       0.00000000    -275.43606567
P        0.00000000       0.00000000       1.00303030       0.00000000       0.00000000     275.43606567
2
Properties=species:S:1:pos:R:3:forces:R:3 energy=46.84436004869662 pbc="F F F"
P        0.00000000       0.00000000       0.00000000       0.00000000       0.00000000    -234.11172485
P        0.00000000       0.00000000       1.06181818       0.00000000       0.00000000     234.11172485
2
Properties=species:S:1:pos:R:3:forces:R:3 energy=34.21587677328732 pbc="F F F"
P        0.00000000       0.00000000       0.00000000       0.00000000       0.00000000    -194.58062744
P        0.00000000       0.00000000       1.12060606       0.00000000       0.00000000     194.58062744
2
Properties=species:S:1:pos:R:3:forces:R:3 energy=24.106714071225436 pbc="F F F"
P        0.00000000       0.00000000       0.00000000       0.00000000       0.00000000    -150.91978455
P        0.00000000       0.00000000       1.17939394       0.00000000       0.00000000     150.91978455
2
Properties=species:S:1:pos:R:3:forces:R:3 energy=16.152215741236848 pbc="F F F"
P        0.00000000       0.00000000       0.00000000       0.00000000       0.00000000    -121.28176880
P        0.00000000       0.00000000       1.23818182       0.00000000       0.00000000     121.28176880
2
Properties=species:S:1:pos:R:3:forces:R:3 energy=9.783358939269148 pbc="F F F"
P        0.00000000       0.00000000       0.00000000       0.00000000       0.00000000     -95.72138977
P        0.00000000       0.00000000       1.29696970       0.00000000       0.00000000      95.72138977
2
Properties=species:S:1:pos:R:3:forces:R:3 energy=4.829723840784626 pbc="F F F"
P        0.00000000       0.00000000       0.00000000       0.00000000       0.00000000     -73.56035614
P        0.00000000       0.00000000       1.35575758       0.00000000       0.00000000      73.56035614
2
Properties=species:S:1:pos:R:3:forces:R:3 energy=1.0439668247322462 pbc="F F F"
P        0.00000000       0.00000000       0.00000000       0.00000000       0.00000000     -55.95276642
P        0.00000000       0.00000000       1.41454545       0.00000000       0.00000000      55.95276642
2
Properties=species:S:1:pos:R:3:forces:R:3 energy=-1.8243042120799167 pbc="F F F"
P        0.00000000       0.00000000       0.00000000       0.00000000       0.00000000     -42.19308472
P        0.00000000       0.00000000       1.47333333       0.00000000       0.00000000      42.19308472
2
Properties=species:S:1:pos:R:3:forces:R:3 energy=-3.9754946959402004 pbc="F F F"
P        0.00000000       0.00000000       0.00000000       0.00000000       0.00000000     -31.42739296
P        0.00000000       0.00000000       1.53212121       0.00000000       0.00000000      31.42739296
2
Properties=species:S:1:pos:R:3:forces:R:3 energy=-5.564276779523639 pbc="F F F"
P        0.00000000       0.00000000       0.00000000       0.00000000       0.00000000     -22.95717049
P        0.00000000       0.00000000       1.59090909       0.00000000       0.00000000      22.95717049
2
Properties=species:S:1:pos:R:3:forces:R:3 energy=-6.709076697564107 pbc="F F F"
P        0.00000000       0.00000000       0.00000000       0.00000000       0.00000000     -16.24673080
P        0.00000000       0.00000000       1.64969697       0.00000000       0.00000000      16.24673080
2
Properties=species:S:1:pos:R:3:forces:R:3 energy=-7.501337943705799 pbc="F F F"
P        0.00000000       0.00000000       0.00000000       0.00000000       0.00000000     -10.90975857
P        0.00000000       0.00000000       1.70848485       0.00000000       0.00000000      10.90975857
2
Properties=species:S:1:pos:R:3:forces:R:3 energy=-8.01340299625441 pbc="F F F"
P        0.00000000       0.00000000       0.00000000       0.00000000       0.00000000      -6.67767048
P        0.00000000       0.00000000       1.76727273       0.00000000       0.00000000       6.67767048
2
Properties=species:S:1:pos:R:3:forces:R:3 energy=-8.30440492403483 pbc="F F F"
P        0.00000000       0.00000000       0.00000000       0.00000000       0.00000000      -3.36235499
P        0.00000000       0.00000000       1.82606061       0.00000000       0.00000000       3.36235499
2
Properties=species:S:1:pos:R:3:forces:R:3 energy=-8.423903642021465 pbc="F F F"
P        0.00000000       0.00000000       0.00000000       0.00000000       0.00000000      -0.82187361
P        0.00000000       0.00000000       1.88484848       0.00000000       0.00000000       0.82187361
2
Properties=species:S:1:pos:R:3:forces:R:3 energy=-8.413883082754834 pbc="F F F"
P        0.00000000       0.00000000       0.00000000       0.00000000       0.00000000       1.06280863
P        0.00000000       0.00000000       1.94363636       0.00000000       0.00000000      -1.06280863
2
Properties=species:S:1:pos:R:3:forces:R:3 energy=-8.309613566677564 pbc="F F F"
P        0.00000000       0.00000000       0.00000000       0.00000000       0.00000000       2.40321660
P        0.00000000       0.00000000       2.00242424       0.00000000       0.00000000      -2.40321660
2
Properties=species:S:1:pos:R:3:forces:R:3 energy=-8.13976020256041 pbc="F F F"
P        0.00000000       0.00000000       0.00000000       0.00000000       0.00000000       3.31307173
P        0.00000000       0.00000000       2.06121212       0.00000000       0.00000000      -3.31307173
2
Properties=species:S:1:pos:R:3:forces:R:3 energy=-7.926273249801911 pbc="F F F"
P        0.00000000       0.00000000       0.00000000       0.00000000       0.00000000       3.90630317
P        0.00000000       0.00000000       2.12000000       0.00000000       0.00000000      -3.90630317
2
Properties=species:S:1:pos:R:3:forces:R:3 energy=-7.684664999258376 pbc="F F F"
P        0.00000000       0.00000000       0.00000000       0.00000000       0.00000000       4.28478622
P        0.00000000       0.00000000       2.17878788       0.00000000       0.00000000      -4.28478622
2
Properties=species:S:1:pos:R:3:forces:R:3 energy=-7.425175861843244 pbc="F F F"
P        0.00000000       0.00000000       0.00000000       0.00000000       0.00000000       4.52494860
P        0.00000000       0.00000000       2.23757576       0.00000000       0.00000000      -4.52494860
2
Properties=species:S:1:pos:R:3:forces:R:3 energy=-7.154448028938506 pbc="F F F"
P        0.00000000       0.00000000       0.00000000       0.00000000       0.00000000       4.67200756
P        0.00000000       0.00000000       2.29636364       0.00000000       0.00000000      -4.67200756
2
Properties=species:S:1:pos:R:3:forces:R:3 energy=-6.877311732899738 pbc="F F F"
P        0.00000000       0.00000000       0.00000000       0.00000000       0.00000000       4.74448776
P        0.00000000       0.00000000       2.35515152       0.00000000       0.00000000      -4.74448776
2
Properties=species:S:1:pos:R:3:forces:R:3 energy=-6.5980580521442285 pbc="F F F"
P        0.00000000       0.00000000       0.00000000       0.00000000       0.00000000       4.74292707
P        0.00000000       0.00000000       2.41393939       0.00000000       0.00000000      -4.74292707
2
Properties=species:S:1:pos:R:3:forces:R:3 energy=-6.32125221944882 pbc="F F F"
P        0.00000000       0.00000000       0.00000000       0.00000000       0.00000000       4.66001940
P        0.00000000       0.00000000       2.47272727       0.00000000       0.00000000      -4.66001940
2
Properties=species:S:1:pos:R:3:forces:R:3 energy=-6.051846888949996 pbc="F F F"
P        0.00000000       0.00000000       0.00000000       0.00000000       0.00000000       4.49108362
P        0.00000000       0.00000000       2.53151515       0.00000000       0.00000000      -4.49108362
2
Properties=species:S:1:pos:R:3:forces:R:3 energy=-5.7947798057997515 pbc="F F F"
P        0.00000000       0.00000000       0.00000000       0.00000000       0.00000000       4.24248934
P        0.00000000       0.00000000       2.59030303       0.00000000       0.00000000      -4.24248934
2
Properties=species:S:1:pos:R:3:forces:R:3 energy=-5.554212043478467 pbc="F F F"
P        0.00000000       0.00000000       0.00000000       0.00000000       0.00000000       3.93397903
P        0.00000000       0.00000000       2.64909091       0.00000000       0.00000000      -3.93397903
2
Properties=species:S:1:pos:R:3:forces:R:3 energy=-5.3328622007623245 pbc="F F F"
P        0.00000000       0.00000000       0.00000000       0.00000000       0.00000000       3.59354782
P        0.00000000       0.00000000       2.70787879       0.00000000       0.00000000      -3.59354782
2
Properties=species:S:1:pos:R:3:forces:R:3 energy=-5.131780576835739 pbc="F F F"
P        0.00000000       0.00000000       0.00000000       0.00000000       0.00000000       3.24851608
P        0.00000000       0.00000000       2.76666667       0.00000000       0.00000000      -3.24851608
2
Properties=species:S:1:pos:R:3:forces:R:3 energy=-4.950614337740228 pbc="F F F"
P        0.00000000       0.00000000       0.00000000       0.00000000       0.00000000       2.91855550
P        0.00000000       0.00000000       2.82545455       0.00000000       0.00000000      -2.91855550
2
Properties=species:S:1:pos:R:3:forces:R:3 energy=-4.788132153782295 pbc="F F F"
P        0.00000000       0.00000000       0.00000000       0.00000000       0.00000000       2.61377525
P        0.00000000       0.00000000       2.88424242       0.00000000       0.00000000      -2.61377525
2
Properties=species:S:1:pos:R:3:forces:R:3 energy=-4.642752934148813 pbc="F F F"
P        0.00000000       0.00000000       0.00000000       0.00000000       0.00000000       2.33653522
P        0.00000000       0.00000000       2.94303030       0.00000000       0.00000000      -2.33653522
2
Properties=species:S:1:pos:R:3:forces:R:3 energy=-4.512927651015449 pbc="F F F"
P        0.00000000       0.00000000       0.00000000       0.00000000       0.00000000       2.08395481
P        0.00000000       0.00000000       3.00181818       0.00000000       0.00000000      -2.08395481
2
Properties=species:S:1:pos:R:3:forces:R:3 energy=-4.397347697556429 pbc="F F F"
P        0.00000000       0.00000000       0.00000000       0.00000000       0.00000000       1.85106421
P        0.00000000       0.00000000       3.06060606       0.00000000       0.00000000      -1.85106421
2
Properties=species:S:1:pos:R:3:forces:R:3 energy=-4.294977759410538 pbc="F F F"
P        0.00000000       0.00000000       0.00000000       0.00000000       0.00000000       1.63409173
P        0.00000000       0.00000000       3.11939394       0.00000000       0.00000000      -1.63409173
2
Properties=species:S:1:pos:R:3:forces:R:3 energy=-4.204937163211795 pbc="F F F"
P        0.00000000       0.00000000       0.00000000       0.00000000       0.00000000       1.43148506
P        0.00000000       0.00000000       3.17818182       0.00000000       0.00000000      -1.43148506
2
Properties=species:S:1:pos:R:3:forces:R:3 energy=-4.126388515238006 pbc="F F F"
P        0.00000000       0.00000000       0.00000000       0.00000000       0.00000000       1.24325383
P        0.00000000       0.00000000       3.23696970       0.00000000       0.00000000      -1.24325383
2
Properties=species:S:1:pos:R:3:forces:R:3 energy=-4.05846723065647 pbc="F F F"
P        0.00000000       0.00000000       0.00000000       0.00000000       0.00000000       1.07003462
P        0.00000000       0.00000000       3.29575758       0.00000000       0.00000000      -1.07003462
2
Properties=species:S:1:pos:R:3:forces:R:3 energy=-4.0002717343637935 pbc="F F F"
P        0.00000000       0.00000000       0.00000000       0.00000000       0.00000000       0.91242862
P        0.00000000       0.00000000       3.35454545       0.00000000       0.00000000      -0.91242862
2
Properties=species:S:1:pos:R:3:forces:R:3 energy=-3.9508770226868704 pbc="F F F"
P        0.00000000       0.00000000       0.00000000       0.00000000       0.00000000       0.77063167
P        0.00000000       0.00000000       3.41333333       0.00000000       0.00000000      -0.77063167
2
Properties=species:S:1:pos:R:3:forces:R:3 energy=-3.90935974453132 pbc="F F F"
P        0.00000000       0.00000000       0.00000000       0.00000000       0.00000000       0.64434105
P        0.00000000       0.00000000       3.47212121       0.00000000       0.00000000      -0.64434105
2
Properties=species:S:1:pos:R:3:forces:R:3 energy=-3.874827784132377 pbc="F F F"
P        0.00000000       0.00000000       0.00000000       0.00000000       0.00000000       0.53285193
P        0.00000000       0.00000000       3.53090909       0.00000000       0.00000000      -0.53285193
2
Properties=species:S:1:pos:R:3:forces:R:3 energy=-3.8464383656998615 pbc="F F F"
P        0.00000000       0.00000000       0.00000000       0.00000000       0.00000000       0.43519053
P        0.00000000       0.00000000       3.58969697       0.00000000       0.00000000      -0.43519053
2
Properties=species:S:1:pos:R:3:forces:R:3 energy=-3.8234099735152167 pbc="F F F"
P        0.00000000       0.00000000       0.00000000       0.00000000       0.00000000       0.35027570
P        0.00000000       0.00000000       3.64848485       0.00000000       0.00000000      -0.35027570
2
Properties=species:S:1:pos:R:3:forces:R:3 energy=-3.805026389208242 pbc="F F F"
P        0.00000000       0.00000000       0.00000000       0.00000000       0.00000000       0.27699891
P        0.00000000       0.00000000       3.70727273       0.00000000       0.00000000      -0.27699891
2
Properties=species:S:1:pos:R:3:forces:R:3 energy=-3.790634933296101 pbc="F F F"
P        0.00000000       0.00000000       0.00000000       0.00000000       0.00000000       0.21427193
P        0.00000000       0.00000000       3.76606061       0.00000000       0.00000000      -0.21427193
2
Properties=species:S:1:pos:R:3:forces:R:3 energy=-3.7796469618593322 pbc="F F F"
P        0.00000000       0.00000000       0.00000000       0.00000000       0.00000000       0.16105688
P        0.00000000       0.00000000       3.82484848       0.00000000       0.00000000      -0.16105688
2
Properties=species:S:1:pos:R:3:forces:R:3 energy=-3.771531572624125 pbc="F F F"
P        0.00000000       0.00000000       0.00000000       0.00000000       0.00000000       0.11636683
P        0.00000000       0.00000000       3.88363636       0.00000000       0.00000000      -0.11636683
2
Properties=species:S:1:pos:R:3:forces:R:3 energy=-3.765815794279659 pbc="F F F"
P        0.00000000       0.00000000       0.00000000       0.00000000       0.00000000       0.07928860
P        0.00000000       0.00000000       3.94242424       0.00000000       0.00000000      -0.07928860
2
Properties=species:S:1:pos:R:3:forces:R:3 energy=-3.7620764794944184 pbc="F F F"
P        0.00000000       0.00000000       0.00000000       0.00000000       0.00000000       0.04898931
P        0.00000000       0.00000000       4.00121212       0.00000000       0.00000000      -0.04898931
2
Properties=species:S:1:pos:R:3:forces:R:3 energy=-3.7599375872771597 pbc="F F F"
P        0.00000000       0.00000000       0.00000000       0.00000000       0.00000000       0.02472331
P        0.00000000       0.00000000       4.06000000       0.00000000       0.00000000      -0.02472331
2
Properties=species:S:1:pos:R:3:forces:R:3 energy=-3.759064359560703 pbc="F F F"
P        0.00000000       0.00000000       0.00000000       0.00000000       0.00000000       0.00582731
P        0.00000000       0.00000000       4.11878788       0.00000000       0.00000000      -0.00582731
2
Properties=species:S:1:pos:R:3:forces:R:3 energy=-3.7591591651318685 pbc="F F F"
P        0.00000000       0.00000000       0.00000000       0.00000000       0.00000000      -0.00830782
P        0.00000000       0.00000000       4.17757576       0.00000000       0.00000000       0.00830782
2
Properties=species:S:1:pos:R:3:forces:R:3 energy=-3.7599592651652443 pbc="F F F"
P        0.00000000       0.00000000       0.00000000       0.00000000       0.00000000      -0.01826611
P        0.00000000       0.00000000       4.23636364       0.00000000       0.00000000       0.01826611
2
Properties=species:S:1:pos:R:3:forces:R:3 energy=-3.7612365288711844 pbc="F F F"
P        0.00000000       0.00000000       0.00000000       0.00000000       0.00000000      -0.02463809
P        0.00000000       0.00000000       4.29515152       0.00000000       0.00000000       0.02463809
2
Properties=species:S:1:pos:R:3:forces:R:3 energy=-3.7627979800250575 pbc="F F F"
P        0.00000000       0.00000000       0.00000000       0.00000000       0.00000000      -0.02803471
P        0.00000000       0.00000000       4.35393939       0.00000000       0.00000000       0.02803471
2
Properties=species:S:1:pos:R:3:forces:R:3 energy=-3.764486868682898 pbc="F F F"
P        0.00000000       0.00000000       0.00000000       0.00000000       0.00000000      -0.02908776
P        0.00000000       0.00000000       4.41272727       0.00000000       0.00000000       0.02908776
2
Properties=species:S:1:pos:R:3:forces:R:3 energy=-3.7661844145552807 pbc="F F F"
P        0.00000000       0.00000000       0.00000000       0.00000000       0.00000000      -0.02841976
P        0.00000000       0.00000000       4.47151515       0.00000000       0.00000000       0.02841976
2
Properties=species:S:1:pos:R:3:forces:R:3 energy=-3.767805845758321 pbc="F F F"
P        0.00000000       0.00000000       0.00000000       0.00000000       0.00000000      -0.02660921
P        0.00000000       0.00000000       4.53030303       0.00000000       0.00000000       0.02660921
2
Properties=species:S:1:pos:R:3:forces:R:3 energy=-3.769300387726292 pbc="F F F"
P        0.00000000       0.00000000       0.00000000       0.00000000       0.00000000      -0.02415559
P        0.00000000       0.00000000       4.58909091       0.00000000       0.00000000       0.02415559
2
Properties=species:S:1:pos:R:3:forces:R:3 energy=-3.770641316155573 pbc="F F F"
P        0.00000000       0.00000000       0.00000000       0.00000000       0.00000000      -0.02145203
P        0.00000000       0.00000000       4.64787879       0.00000000       0.00000000       0.02145203
2
Properties=species:S:1:pos:R:3:forces:R:3 energy=-3.7718231973520067 pbc="F F F"
P        0.00000000       0.00000000       0.00000000       0.00000000       0.00000000      -0.01878200
P        0.00000000       0.00000000       4.70666667       0.00000000       0.00000000       0.01878200
2
Properties=species:S:1:pos:R:3:forces:R:3 energy=-3.7728540489281865 pbc="F F F"
P        0.00000000       0.00000000       0.00000000       0.00000000       0.00000000      -0.01633404
P        0.00000000       0.00000000       4.76545455       0.00000000       0.00000000       0.01633404
2
Properties=species:S:1:pos:R:3:forces:R:3 energy=-3.7737504011214744 pbc="F F F"
P        0.00000000       0.00000000       0.00000000       0.00000000       0.00000000      -0.01422092
P        0.00000000       0.00000000       4.82424242       0.00000000       0.00000000       0.01422092
2
Properties=species:S:1:pos:R:3:forces:R:3 energy=-3.7745338092143323 pbc="F F F"
P        0.00000000       0.00000000       0.00000000       0.00000000       0.00000000      -0.01249508
P        0.00000000       0.00000000       4.88303030       0.00000000       0.00000000       0.01249508
2
Properties=species:S:1:pos:R:3:forces:R:3 energy=-3.7752267924989247 pbc="F F F"
P        0.00000000       0.00000000       0.00000000       0.00000000       0.00000000      -0.01113946
P        0.00000000       0.00000000       4.94181818       0.00000000       0.00000000       0.01113946
2
Properties=species:S:1:pos:R:3:forces:R:3 energy=-3.7758481720275747 pbc="F F F"
P        0.00000000       0.00000000       0.00000000       0.00000000       0.00000000      -0.01002692
P        0.00000000       0.00000000       5.00060606       0.00000000       0.00000000       0.01002692
2
Properties=species:S:1:pos:R:3:forces:R:3 energy=-3.7764052273502795 pbc="F F F"
P        0.00000000       0.00000000       0.00000000       0.00000000       0.00000000      -0.00889303
P        0.00000000       0.00000000       5.05939394       0.00000000       0.00000000       0.00889303
2
Properties=species:S:1:pos:R:3:forces:R:3 energy=-3.776886088502975 pbc="F F F"
P        0.00000000       0.00000000       0.00000000       0.00000000       0.00000000      -0.00736113
P        0.00000000       0.00000000       5.11818182       0.00000000       0.00000000       0.00736113
2
Properties=species:S:1:pos:R:3:forces:R:3 energy=-3.7772562048703167 pbc="F F F"
P        0.00000000       0.00000000       0.00000000       0.00000000       0.00000000      -0.00508734
P        0.00000000       0.00000000       5.17696970       0.00000000       0.00000000       0.00508734
2
Properties=species:S:1:pos:R:3:forces:R:3 energy=-3.7774674304342644 pbc="F F F"
P        0.00000000       0.00000000       0.00000000       0.00000000       0.00000000      -0.00196997
P        0.00000000       0.00000000       5.23575758       0.00000000       0.00000000       0.00196997
2
Properties=species:S:1:pos:R:3:forces:R:3 energy=-3.7774756802121754 pbc="F F F"
P        0.00000000       0.00000000       0.00000000       0.00000000       0.00000000       0.00175480
P        0.00000000       0.00000000       5.29454545       0.00000000       0.00000000      -0.00175480
2
Properties=species:S:1:pos:R:3:forces:R:3 energy=-3.777258607285751 pbc="F F F"
P        0.00000000       0.00000000       0.00000000       0.00000000       0.00000000       0.00559505
P        0.00000000       0.00000000       5.35333333       0.00000000       0.00000000      -0.00559505
2
Properties=species:S:1:pos:R:3:forces:R:3 energy=-3.776835851749189 pbc="F F F"
P        0.00000000       0.00000000       0.00000000       0.00000000       0.00000000       0.00844532
P        0.00000000       0.00000000       5.41212121       0.00000000       0.00000000      -0.00844532
2
Properties=species:S:1:pos:R:3:forces:R:3 energy=-3.776335122253377 pbc="F F F"
P        0.00000000       0.00000000       0.00000000       0.00000000       0.00000000       0.00778352
P        0.00000000       0.00000000       5.47090909       0.00000000       0.00000000      -0.00778352
2
Properties=species:S:1:pos:R:3:forces:R:3 energy=-3.7760074437075732 pbc="F F F"
P        0.00000000       0.00000000       0.00000000       0.00000000       0.00000000       0.00300747
P        0.00000000       0.00000000       5.52969697       0.00000000       0.00000000      -0.00300747
2
Properties=species:S:1:pos:R:3:forces:R:3 energy=-3.7759551256404302 pbc="F F F"
P        0.00000000       0.00000000       0.00000000       0.00000000       0.00000000      -0.00061627
P        0.00000000       0.00000000       5.58848485       0.00000000       0.00000000       0.00061627
2
Properties=species:S:1:pos:R:3:forces:R:3 energy=-3.77602426234731 pbc="F F F"
P        0.00000000       0.00000000       0.00000000       0.00000000       0.00000000      -0.00169715
P        0.00000000       0.00000000       5.64727273       0.00000000       0.00000000       0.00169715
2
Properties=species:S:1:pos:R:3:forces:R:3 energy=-3.776219308745252 pbc="F F F"
P        0.00000000       0.00000000       0.00000000       0.00000000       0.00000000      -0.00597375
P        0.00000000       0.00000000       5.70606061       0.00000000       0.00000000       0.00597375
2
Properties=species:S:1:pos:R:3:forces:R:3 energy=-3.7768459180484535 pbc="F F F"
P        0.00000000       0.00000000       0.00000000       0.00000000       0.00000000      -0.01571716
P        0.00000000       0.00000000       5.76484848       0.00000000       0.00000000       0.01571716
2
Properties=species:S:1:pos:R:3:forces:R:3 energy=-3.7779744987773607 pbc="F F F"
P        0.00000000       0.00000000       0.00000000       0.00000000       0.00000000      -0.02082006
P        0.00000000       0.00000000       5.82363636       0.00000000       0.00000000       0.02082006
2
Properties=species:S:1:pos:R:3:forces:R:3 energy=-3.7790272539807743 pbc="F F F"
P        0.00000000       0.00000000       0.00000000       0.00000000       0.00000000      -0.01332277
P        0.00000000       0.00000000       5.88242424       0.00000000       0.00000000       0.01332277
2
Properties=species:S:1:pos:R:3:forces:R:3 energy=-3.7794617467050444 pbc="F F F"
P        0.00000000       0.00000000       0.00000000       0.00000000       0.00000000      -0.00176177
P        0.00000000       0.00000000       5.94121212       0.00000000       0.00000000       0.00176177
2
Properties=species:S:1:pos:R:3:forces:R:3 energy=-3.779374323162577 pbc="F F F"
P        0.00000000       0.00000000       0.00000000       0.00000000       0.00000000       0.00307396
P        0.00000000       0.00000000       6.00000000       0.00000000       0.00000000      -0.00307396
