2
Properties=species:S:1:pos:R:3:forces:R:3 energy=1836.711886063336 pbc="F F F"
P        0.00000000       0.00000000       0.00000000       0.00000000       0.00000000  -21842.82812500
P        0.00000000       0.00000000       0.18000000       0.00000000       0.00000000   21842.82812500
2
Properties=species:S:1:pos:R:3:forces:R:3 energy=1024.1709925086484 pbc="F F F"
P        0.00000000       0.00000000       0.00000000       0.00000000       0.00000000   -8363.58593750
P        0.00000000       0.00000000       0.23878788       0.00000000       0.00000000    8363.58593750
2
Properties=species:S:1:pos:R:3:forces:R:3 energy=689.7894007117734 pbc="F F F"
P        0.00000000       0.00000000       0.00000000       0.00000000       0.00000000   -3743.33129883
P        0.00000000       0.00000000       0.29757576       0.00000000       0.00000000    3743.33129883
2
Properties=species:S:1:pos:R:3:forces:R:3 energy=532.7402674204956 pbc="F F F"
P        0.00000000       0.00000000       0.00000000       0.00000000       0.00000000   -1881.43115234
P        0.00000000       0.00000000       0.35636364       0.00000000       0.00000000    1881.43115234
2
Properties=species:S:1:pos:R:3:forces:R:3 energy=440.2389551804754 pbc="F F F"
P        0.00000000       0.00000000       0.00000000       0.00000000       0.00000000   -1330.43176270
P        0.00000000       0.00000000       0.41515152       0.00000000       0.00000000    1330.43176270
2
Properties=species:S:1:pos:R:3:forces:R:3 energy=370.5787074157549 pbc="F F F"
P        0.00000000       0.00000000       0.00000000       0.00000000       0.00000000   -1075.31457520
P        0.00000000       0.00000000       0.47393939       0.00000000       0.00000000    1075.31457520
2
Properties=species:S:1:pos:R:3:forces:R:3 energy=310.768130089701 pbc="F F F"
P        0.00000000       0.00000000       0.00000000       0.00000000       0.00000000    -970.46569824
P        0.00000000       0.00000000       0.53272727       0.00000000       0.00000000     970.46569824
2
Properties=species:S:1:pos:R:3:forces:R:3 energy=256.8519314764417 pbc="F F F"
P        0.00000000       0.00000000       0.00000000       0.00000000       0.00000000    -863.97131348
P        0.00000000       0.00000000       0.59151515       0.00000000       0.00000000     863.97131348
2
Properties=species:S:1:pos:R:3:forces:R:3 energy=211.0083342544016 pbc="F F F"
P        0.00000000       0.00000000       0.00000000       0.00000000       0.00000000    -688.19299316
P        0.00000000       0.00000000       0.65030303       0.00000000       0.00000000     688.19299316
2
Properties=species:S:1:pos:R:3:forces:R:3 energy=174.22555867960628 pbc="F F F"
P        0.00000000       0.00000000       0.00000000       0.00000000       0.00000000    -566.61120605
P        0.00000000       0.00000000       0.70909091       0.00000000       0.00000000     566.61120605
2
Properties=species:S:1:pos:R:3:forces:R:3 energy=144.5278815266358 pbc="F F F"
P        0.00000000       0.00000000       0.00000000       0.00000000       0.00000000    -449.26162720
P        0.00000000       0.00000000       0.76787879       0.00000000       0.00000000     449.26162720
2
Properties=species:S:1:pos:R:3:forces:R:3 energy=120.1373106134793 pbc="F F F"
P        0.00000000       0.00000000       0.00000000       0.00000000       0.00000000    -389.51013184
P        0.00000000       0.00000000       0.82666667       0.00000000       0.00000000     389.51013184
2
Properties=species:S:1:pos:R:3:forces:R:3 energy=98.42261279766461 pbc="F F F"
P        0.00000000       0.00000000       0.00000000       0.00000000       0.00000000    -348.60433960
P        0.00000000       0.00000000       0.88545455       0.00000000       0.00000000     348.60433960
2
Properties=species:S:1:pos:R:3:forces:R:3 energy=79.08397585416408 pbc="F F F"
P        0.00000000       0.00000000       0.00000000       0.00000000       0.00000000    -310.82083130
P        0.00000000       0.00000000       0.94424242       0.00000000       0.00000000     310.82083130
2
Properties=species:S:1:pos:R:3:forces:R:3 energy=61.82001212282533 pbc="F F F"
P        0.00000000       0.00000000       0.00000000       0.00000000       0.00000000    -275.43579102
P        0.00000000       0.00000000       1.00303030       0.00000000       0.00000000     275.43579102
2
Properties=species:S:1:pos:R:3:forces:R:3 energy=46.8443295311185 pbc="F F F"
P        0.00000000       0.00000000       0.00000000       0.00000000       0.00000000    -234.11167908
P        0.00000000       0.00000000       1.06181818       0.00000000       0.00000000     234.11167908
2
Properties=species:S:1:pos:R:3:forces:R:3 energy=34.21588821737912 pbc="F F F"
P        0.00000000       0.00000000       0.00000000       0.00000000       0.00000000    -194.58065796
P        0.00000000       0.00000000       1.12060606       0.00000000       0.00000000     194.58065796
2
Properties=species:S:1:pos:R:3:forces:R:3 energy=24.106712163876804 pbc="F F F"
P        0.00000000       0.00000000       0.00000000       0.00000000       0.00000000    -150.91967773
P        0.00000000       0.00000000       1.17939394       0.00000000       0.00000000     150.91967773
2
Properties=species:S:1:pos:R:3:forces:R:3 energy=16.15222337063138 pbc="F F F"
P        0.00000000       0.00000000       0.00000000       0.00000000       0.00000000    -121.28184509
P        0.00000000       0.00000000       1.23818182       0.00000000       0.00000000     121.28184509
2
Properties=species:S:1:pos:R:3:forces:R:3 energy=9.783360849785602 pbc="F F F"
P        0.00000000       0.00000000       0.00000000       0.00000000       0.00000000     -95.72139740
P        0.00000000       0.00000000       1.29696970       0.00000000       0.00000000      95.72139740
2
Properties=species:S:1:pos:R:3:forces:R:3 energy=4.829718118738728 pbc="F F F"
P        0.00000000       0.00000000       0.00000000       0.00000000       0.00000000     -73.56034088
P        0.00000000       0.00000000       1.35575758       0.00000000       0.00000000      73.56034088
2
Properties=species:S:1:pos:R:3:forces:R:3 energy=1.043975410968916 pbc="F F F"
P        0.00000000       0.00000000       0.00000000       0.00000000       0.00000000     -55.95280075
P        0.00000000       0.00000000       1.41454545       0.00000000       0.00000000      55.95280075
2
Properties=species:S:1:pos:R:3:forces:R:3 energy=-1.8243067154749972 pbc="F F F"
P        0.00000000       0.00000000       0.00000000       0.00000000       0.00000000     -42.19308090
P        0.00000000       0.00000000       1.47333333       0.00000000       0.00000000      42.19308090
2
Properties=species:S:1:pos:R:3:forces:R:3 energy=-3.975493983852285 pbc="F F F"
P        0.00000000       0.00000000       0.00000000       0.00000000       0.00000000     -31.42739487
P        0.00000000       0.00000000       1.53212121       0.00000000       0.00000000      31.42739487
2
Properties=species:S:1:pos:R:3:forces:R:3 energy=-5.5642767763558165 pbc="F F F"
P        0.00000000       0.00000000       0.00000000       0.00000000       0.00000000     -22.95717049
P        0.00000000       0.00000000       1.59090909       0.00000000       0.00000000      22.95717049
2
Properties=species:S:1:pos:R:3:forces:R:3 energy=-6.709077651238424 pbc="F F F"
P        0.00000000       0.00000000       0.00000000       0.00000000       0.00000000     -16.24673080
P        0.00000000       0.00000000       1.64969697       0.00000000       0.00000000      16.24673080
2
Properties=species:S:1:pos:R:3:forces:R:3 energy=-7.501336983695838 pbc="F F F"
P        0.00000000       0.00000000       0.00000000       0.00000000       0.00000000     -10.90976429
P        0.00000000       0.00000000       1.70848485       0.00000000       0.00000000      10.90976429
2
Properties=species:S:1:pos:R:3:forces:R:3 energy=-8.013401088905777 pbc="F F F"
P        0.00000000       0.00000000       0.00000000       0.00000000       0.00000000      -6.67767906
P        0.00000000       0.00000000       1.76727273       0.00000000       0.00000000       6.67767906
2
Properties=species:S:1:pos:R:3:forces:R:3 energy=-8.30440396402487 pbc="F F F"
P        0.00000000       0.00000000       0.00000000       0.00000000       0.00000000      -3.36235356
P        0.00000000       0.00000000       1.82606061       0.00000000       0.00000000       3.36235356
2
Properties=species:S:1:pos:R:3:forces:R:3 energy=-8.423903642021465 pbc="F F F"
P        0.00000000       0.00000000       0.00000000       0.00000000       0.00000000      -0.82186705
P        0.00000000       0.00000000       1.88484848       0.00000000       0.00000000       0.82186705
2
Properties=species:S:1:pos:R:3:forces:R:3 energy=-8.413883063747901 pbc="F F F"
P        0.00000000       0.00000000       0.00000000       0.00000000       0.00000000       1.06280959
P        0.00000000       0.00000000       1.94363636       0.00000000       0.00000000      -1.06280959
2
Properties=species:S:1:pos:R:3:forces:R:3 energy=-8.309611659328931 pbc="F F F"
P        0.00000000       0.00000000       0.00000000       0.00000000       0.00000000       2.40321517
P        0.00000000       0.00000000       2.00242424       0.00000000       0.00000000      -2.40321517
2
Properties=species:S:1:pos:R:3:forces:R:3 energy=-8.139761156234727 pbc="F F F"
P        0.00000000       0.00000000       0.00000000       0.00000000       0.00000000       3.31306911
P        0.00000000       0.00000000       2.06121212       0.00000000       0.00000000      -3.31306911
2
Properties=species:S:1:pos:R:3:forces:R:3 energy=-7.926271816122614 pbc="F F F"
P        0.00000000       0.00000000       0.00000000       0.00000000       0.00000000       3.90630388
P        0.00000000       0.00000000       2.12000000       0.00000000       0.00000000      -3.90630388
2
Properties=species:S:1:pos:R:3:forces:R:3 energy=-7.684665476095534 pbc="F F F"
P        0.00000000       0.00000000       0.00000000       0.00000000       0.00000000       4.28478336
P        0.00000000       0.00000000       2.17878788       0.00000000       0.00000000      -4.28478336
2
Properties=species:S:1:pos:R:3:forces:R:3 energy=-7.425175861843244 pbc="F F F"
P        0.00000000       0.00000000       0.00000000       0.00000000       0.00000000       4.52494860
P        0.00000000       0.00000000       2.23757576       0.00000000       0.00000000      -4.52494860
2
Properties=species:S:1:pos:R:3:forces:R:3 energy=-7.154449936287139 pbc="F F F"
P        0.00000000       0.00000000       0.00000000       0.00000000       0.00000000       4.67200470
P        0.00000000       0.00000000       2.29636364       0.00000000       0.00000000      -4.67200470
2
Properties=species:S:1:pos:R:3:forces:R:3 energy=-6.8773107792254216 pbc="F F F"
P        0.00000000       0.00000000       0.00000000       0.00000000       0.00000000       4.74448872
P        0.00000000       0.00000000       2.35515152       0.00000000       0.00000000      -4.74448872
2
Properties=species:S:1:pos:R:3:forces:R:3 energy=-6.598057098469912 pbc="F F F"
P        0.00000000       0.00000000       0.00000000       0.00000000       0.00000000       4.74292946
P        0.00000000       0.00000000       2.41393939       0.00000000       0.00000000      -4.74292946
2
Properties=species:S:1:pos:R:3:forces:R:3 energy=-6.32125221944882 pbc="F F F"
P        0.00000000       0.00000000       0.00000000       0.00000000       0.00000000       4.66002035
P        0.00000000       0.00000000       2.47272727       0.00000000       0.00000000      -4.66002035
2
Properties=species:S:1:pos:R:3:forces:R:3 energy=-6.051846408945016 pbc="F F F"
P        0.00000000       0.00000000       0.00000000       0.00000000       0.00000000       4.49108315
P        0.00000000       0.00000000       2.53151515       0.00000000       0.00000000      -4.49108315
2
Properties=species:S:1:pos:R:3:forces:R:3 energy=-5.794780759474068 pbc="F F F"
P        0.00000000       0.00000000       0.00000000       0.00000000       0.00000000       4.24248791
P        0.00000000       0.00000000       2.59030303       0.00000000       0.00000000      -4.24248791
2
Properties=species:S:1:pos:R:3:forces:R:3 energy=-5.554212520315625 pbc="F F F"
P        0.00000000       0.00000000       0.00000000       0.00000000       0.00000000       3.93397951
P        0.00000000       0.00000000       2.64909091       0.00000000       0.00000000      -3.93397951
2
Properties=species:S:1:pos:R:3:forces:R:3 energy=-5.3328622007623245 pbc="F F F"
P        0.00000000       0.00000000       0.00000000       0.00000000       0.00000000       3.59354782
P        0.00000000       0.00000000       2.70787879       0.00000000       0.00000000      -3.59354782
2
Properties=species:S:1:pos:R:3:forces:R:3 energy=-5.1317810473372525 pbc="F F F"
P        0.00000000       0.00000000       0.00000000       0.00000000       0.00000000       3.24851608
P        0.00000000       0.00000000       2.76666667       0.00000000       0.00000000      -3.24851608
2
Properties=species:S:1:pos:R:3:forces:R:3 energy=-4.950614811409563 pbc="F F F"
P        0.00000000       0.00000000       0.00000000       0.00000000       0.00000000       2.91855597
P        0.00000000       0.00000000       2.82545455       0.00000000       0.00000000      -2.91855597
2
Properties=species:S:1:pos:R:3:forces:R:3 energy=-4.788132630619454 pbc="F F F"
P        0.00000000       0.00000000       0.00000000       0.00000000       0.00000000       2.61377549
P        0.00000000       0.00000000       2.88424242       0.00000000       0.00000000      -2.61377549
2
Properties=species:S:1:pos:R:3:forces:R:3 energy=-4.642753894158774 pbc="F F F"
P        0.00000000       0.00000000       0.00000000       0.00000000       0.00000000       2.33653736
P        0.00000000       0.00000000       2.94303030       0.00000000       0.00000000      -2.33653736
2
Properties=species:S:1:pos:R:3:forces:R:3 energy=-4.512928137356074 pbc="F F F"
P        0.00000000       0.00000000       0.00000000       0.00000000       0.00000000       2.08395386
P        0.00000000       0.00000000       3.00181818       0.00000000       0.00000000      -2.08395386
2
Properties=species:S:1:pos:R:3:forces:R:3 energy=-4.397347227054916 pbc="F F F"
P        0.00000000       0.00000000       0.00000000       0.00000000       0.00000000       1.85106397
P        0.00000000       0.00000000       3.06060606       0.00000000       0.00000000      -1.85106397
2
Properties=species:S:1:pos:R:3:forces:R:3 energy=-4.29497728257338 pbc="F F F"
P        0.00000000       0.00000000       0.00000000       0.00000000       0.00000000       1.63409150
P        0.00000000       0.00000000       3.11939394       0.00000000       0.00000000      -1.63409150
2
Properties=species:S:1:pos:R:3:forces:R:3 energy=-4.204936683206816 pbc="F F F"
P        0.00000000       0.00000000       0.00000000       0.00000000       0.00000000       1.43148482
P        0.00000000       0.00000000       3.17818182       0.00000000       0.00000000      -1.43148482
2
Properties=species:S:1:pos:R:3:forces:R:3 energy=-4.126388038400848 pbc="F F F"
P        0.00000000       0.00000000       0.00000000       0.00000000       0.00000000       1.24325407
P        0.00000000       0.00000000       3.23696970       0.00000000       0.00000000      -1.24325407
2
Properties=species:S:1:pos:R:3:forces:R:3 energy=-4.058466747483667 pbc="F F F"
P        0.00000000       0.00000000       0.00000000       0.00000000       0.00000000       1.07003379
P        0.00000000       0.00000000       3.29575758       0.00000000       0.00000000      -1.07003379
2
Properties=species:S:1:pos:R:3:forces:R:3 energy=-4.000271960111084 pbc="F F F"
P        0.00000000       0.00000000       0.00000000       0.00000000       0.00000000       0.91242903
P        0.00000000       0.00000000       3.35454545       0.00000000       0.00000000      -0.91242903
2
Properties=species:S:1:pos:R:3:forces:R:3 energy=-3.950877029022515 pbc="F F F"
P        0.00000000       0.00000000       0.00000000       0.00000000       0.00000000       0.77063137
P        0.00000000       0.00000000       3.41333333       0.00000000       0.00000000      -0.77063137
2
Properties=species:S:1:pos:R:3:forces:R:3 energy=-3.90935974453132 pbc="F F F"
P        0.00000000       0.00000000       0.00000000       0.00000000       0.00000000       0.64434171
P        0.00000000       0.00000000       3.47212121       0.00000000       0.00000000      -0.64434171
2
Properties=species:S:1:pos:R:3:forces:R:3 energy=-3.8748280130474897 pbc="F F F"
P        0.00000000       0.00000000       0.00000000       0.00000000       0.00000000       0.53285211
P        0.00000000       0.00000000       3.53090909       0.00000000       0.00000000      -0.53285211
2
Properties=species:S:1:pos:R:3:forces:R:3 energy=-3.8464383656998615 pbc="F F F"
P        0.00000000       0.00000000       0.00000000       0.00000000       0.00000000       0.43519047
P        0.00000000       0.00000000       3.58969697       0.00000000       0.00000000      -0.43519047
2
Properties=species:S:1:pos:R:3:forces:R:3 energy=-3.8234099640117503 pbc="F F F"
P        0.00000000       0.00000000       0.00000000       0.00000000       0.00000000       0.35027617
P        0.00000000       0.00000000       3.64848485       0.00000000       0.00000000      -0.35027617
2
Properties=species:S:1:pos:R:3:forces:R:3 energy=-3.805026627626821 pbc="F F F"
P        0.00000000       0.00000000       0.00000000       0.00000000       0.00000000       0.27699915
P        0.00000000       0.00000000       3.70727273       0.00000000       0.00000000      -0.27699915
2
Properties=species:S:1:pos:R:3:forces:R:3 energy=-3.7906349396317456 pbc="F F F"
P        0.00000000       0.00000000       0.00000000       0.00000000       0.00000000       0.21427204
P        0.00000000       0.00000000       3.76606061       0.00000000       0.00000000      -0.21427204
2
Properties=species:S:1:pos:R:3:forces:R:3 energy=-3.7796467202729307 pbc="F F F"
P        0.00000000       0.00000000       0.00000000       0.00000000       0.00000000       0.16105720
P        0.00000000       0.00000000       3.82484848       0.00000000       0.00000000      -0.16105720
2
Properties=species:S:1:pos:R:3:forces:R:3 energy=-3.771531572624125 pbc="F F F"
P        0.00000000       0.00000000       0.00000000       0.00000000       0.00000000       0.11636660
P        0.00000000       0.00000000       3.88363636       0.00000000       0.00000000      -0.11636660
2
Properties=species:S:1:pos:R:3:forces:R:3 energy=-3.765815794279659 pbc="F F F"
P        0.00000000       0.00000000       0.00000000       0.00000000       0.00000000       0.07928888
P        0.00000000       0.00000000       3.94242424       0.00000000       0.00000000      -0.07928888
2
Properties=species:S:1:pos:R:3:forces:R:3 energy=-3.762076473158774 pbc="F F F"
P        0.00000000       0.00000000       0.00000000       0.00000000       0.00000000       0.04898914
P        0.00000000       0.00000000       4.00121212       0.00000000       0.00000000      -0.04898914
2
Properties=species:S:1:pos:R:3:forces:R:3 energy=-3.7599375856932484 pbc="F F F"
P        0.00000000       0.00000000       0.00000000       0.00000000       0.00000000       0.02472340
P        0.00000000       0.00000000       4.06000000       0.00000000       0.00000000      -0.02472340
2
Properties=species:S:1:pos:R:3:forces:R:3 energy=-3.759064359560703 pbc="F F F"
P        0.00000000       0.00000000       0.00000000       0.00000000       0.00000000       0.00582724
P        0.00000000       0.00000000       4.11878788       0.00000000       0.00000000      -0.00582724
2
Properties=species:S:1:pos:R:3:forces:R:3 energy=-3.7591591587962245 pbc="F F F"
P        0.00000000       0.00000000       0.00000000       0.00000000       0.00000000      -0.00830836
P        0.00000000       0.00000000       4.17757576       0.00000000       0.00000000       0.00830836
2
Properties=species:S:1:pos:R:3:forces:R:3 energy=-3.7599592572456886 pbc="F F F"
P        0.00000000       0.00000000       0.00000000       0.00000000       0.00000000      -0.01826640
P        0.00000000       0.00000000       4.23636364       0.00000000       0.00000000       0.01826640
2
Properties=species:S:1:pos:R:3:forces:R:3 energy=-3.7612365288711844 pbc="F F F"
P        0.00000000       0.00000000       0.00000000       0.00000000       0.00000000      -0.02463808
P        0.00000000       0.00000000       4.29515152       0.00000000       0.00000000       0.02463808
2
Properties=species:S:1:pos:R:3:forces:R:3 energy=-3.7627979800250575 pbc="F F F"
P        0.00000000       0.00000000       0.00000000       0.00000000       0.00000000      -0.02803528
P        0.00000000       0.00000000       4.35393939       0.00000000       0.00000000       0.02803528
2
Properties=species:S:1:pos:R:3:forces:R:3 energy=-3.7644868591794314 pbc="F F F"
P        0.00000000       0.00000000       0.00000000       0.00000000       0.00000000      -0.02908856
P        0.00000000       0.00000000       4.41272727       0.00000000       0.00000000       0.02908856
2
Properties=species:S:1:pos:R:3:forces:R:3 energy=-3.7661844145552807 pbc="F F F"
P        0.00000000       0.00000000       0.00000000       0.00000000       0.00000000      -0.02841975
P        0.00000000       0.00000000       4.47151515       0.00000000       0.00000000       0.02841975
2
Properties=species:S:1:pos:R:3:forces:R:3 energy=-3.767805845758321 pbc="F F F"
P        0.00000000       0.00000000       0.00000000       0.00000000       0.00000000      -0.02660946
P        0.00000000       0.00000000       4.53030303       0.00000000       0.00000000       0.02660946
2
Properties=species:S:1:pos:R:3:forces:R:3 energy=-3.7693003798067366 pbc="F F F"
P        0.00000000       0.00000000       0.00000000       0.00000000       0.00000000      -0.02415526
P        0.00000000       0.00000000       4.58909091       0.00000000       0.00000000       0.02415526
2
Properties=species:S:1:pos:R:3:forces:R:3 energy=-3.770641316155573 pbc="F F F"
P        0.00000000       0.00000000       0.00000000       0.00000000       0.00000000      -0.02145189
P        0.00000000       0.00000000       4.64787879       0.00000000       0.00000000       0.02145189
2
Properties=species:S:1:pos:R:3:forces:R:3 energy=-3.7718231973520067 pbc="F F F"
P        0.00000000       0.00000000       0.00000000       0.00000000       0.00000000      -0.01878227
P        0.00000000       0.00000000       4.70666667       0.00000000       0.00000000       0.01878227
2
Properties=species:S:1:pos:R:3:forces:R:3 energy=-3.7728540489281865 pbc="F F F"
P        0.00000000       0.00000000       0.00000000       0.00000000       0.00000000      -0.01633394
P        0.00000000       0.00000000       4.76545455       0.00000000       0.00000000       0.01633394
2
Properties=species:S:1:pos:R:3:forces:R:3 energy=-3.7737504011214744 pbc="F F F"
P        0.00000000       0.00000000       0.00000000       0.00000000       0.00000000      -0.01422128
P        0.00000000       0.00000000       4.82424242       0.00000000       0.00000000       0.01422128
2
Properties=species:S:1:pos:R:3:forces:R:3 energy=-3.7745338092143323 pbc="F F F"
P        0.00000000       0.00000000       0.00000000       0.00000000       0.00000000      -0.01249527
P        0.00000000       0.00000000       4.88303030       0.00000000       0.00000000       0.01249527
2
Properties=species:S:1:pos:R:3:forces:R:3 energy=-3.7752267924989247 pbc="F F F"
P        0.00000000       0.00000000       0.00000000       0.00000000       0.00000000      -0.01113919
P        0.00000000       0.00000000       4.94181818       0.00000000       0.00000000       0.01113919
2
Properties=species:S:1:pos:R:3:forces:R:3 energy=-3.7758481720275747 pbc="F F F"
P        0.00000000       0.00000000       0.00000000       0.00000000       0.00000000      -0.01002736
P        0.00000000       0.00000000       5.00060606       0.00000000       0.00000000       0.01002736
2
Properties=species:S:1:pos:R:3:forces:R:3 energy=-3.7764054657688586 pbc="F F F"
P        0.00000000       0.00000000       0.00000000       0.00000000       0.00000000      -0.00889317
P        0.00000000       0.00000000       5.05939394       0.00000000       0.00000000       0.00889317
2
Properties=species:S:1:pos:R:3:forces:R:3 energy=-3.776886088502975 pbc="F F F"
P        0.00000000       0.00000000       0.00000000       0.00000000       0.00000000      -0.00736099
P        0.00000000       0.00000000       5.11818182       0.00000000       0.00000000       0.00736099
2
Properties=species:S:1:pos:R:3:forces:R:3 energy=-3.7772562009105393 pbc="F F F"
P        0.00000000       0.00000000       0.00000000       0.00000000       0.00000000      -0.00508746
P        0.00000000       0.00000000       5.17696970       0.00000000       0.00000000       0.00508746
2
Properties=species:S:1:pos:R:3:forces:R:3 energy=-3.7774674304342644 pbc="F F F"
P        0.00000000       0.00000000       0.00000000       0.00000000       0.00000000      -0.00196961
P        0.00000000       0.00000000       5.23575758       0.00000000       0.00000000       0.00196961
2
Properties=species:S:1:pos:R:3:forces:R:3 energy=-3.7774756802121754 pbc="F F F"
P        0.00000000       0.00000000       0.00000000       0.00000000       0.00000000       0.00175509
P        0.00000000       0.00000000       5.29454545       0.00000000       0.00000000      -0.00175509
2
Properties=species:S:1:pos:R:3:forces:R:3 energy=-3.7772586053058617 pbc="F F F"
P        0.00000000       0.00000000       0.00000000       0.00000000       0.00000000       0.00559529
P        0.00000000       0.00000000       5.35333333       0.00000000       0.00000000      -0.00559529
2
Properties=species:S:1:pos:R:3:forces:R:3 energy=-3.7768360901677682 pbc="F F F"
P        0.00000000       0.00000000       0.00000000       0.00000000       0.00000000       0.00844494
P        0.00000000       0.00000000       5.41212121       0.00000000       0.00000000      -0.00844494
2
Properties=species:S:1:pos:R:3:forces:R:3 energy=-3.776335122253377 pbc="F F F"
P        0.00000000       0.00000000       0.00000000       0.00000000       0.00000000       0.00778354
P        0.00000000       0.00000000       5.47090909       0.00000000       0.00000000      -0.00778354
2
Properties=species:S:1:pos:R:3:forces:R:3 energy=-3.7760074401437733 pbc="F F F"
P        0.00000000       0.00000000       0.00000000       0.00000000       0.00000000       0.00300739
P        0.00000000       0.00000000       5.52969697       0.00000000       0.00000000      -0.00300739
2
Properties=species:S:1:pos:R:3:forces:R:3 energy=-3.775955126036408 pbc="F F F"
P        0.00000000       0.00000000       0.00000000       0.00000000       0.00000000      -0.00061608
P        0.00000000       0.00000000       5.58848485       0.00000000       0.00000000       0.00061608
2
Properties=species:S:1:pos:R:3:forces:R:3 energy=-3.776024023928731 pbc="F F F"
P        0.00000000       0.00000000       0.00000000       0.00000000       0.00000000      -0.00169496
P        0.00000000       0.00000000       5.64727273       0.00000000       0.00000000       0.00169496
2
Properties=species:S:1:pos:R:3:forces:R:3 energy=-3.7762193071613406 pbc="F F F"
P        0.00000000       0.00000000       0.00000000       0.00000000       0.00000000      -0.00597296
P        0.00000000       0.00000000       5.70606061       0.00000000       0.00000000       0.00597296
2
Properties=species:S:1:pos:R:3:forces:R:3 energy=-3.7768459180484535 pbc="F F F"
P        0.00000000       0.00000000       0.00000000       0.00000000       0.00000000      -0.01571853
P        0.00000000       0.00000000       5.76484848       0.00000000       0.00000000       0.01571853
2
Properties=species:S:1:pos:R:3:forces:R:3 energy=-3.7779764061259935 pbc="F F F"
P        0.00000000       0.00000000       0.00000000       0.00000000       0.00000000      -0.02083904
P        0.00000000       0.00000000       5.82363636       0.00000000       0.00000000       0.02083904
2
Properties=species:S:1:pos:R:3:forces:R:3 energy=-3.779027252792841 pbc="F F F"
P        0.00000000       0.00000000       0.00000000       0.00000000       0.00000000      -0.01332102
P        0.00000000       0.00000000       5.88242424       0.00000000       0.00000000       0.01332102
2
Properties=species:S:1:pos:R:3:forces:R:3 energy=-3.7794617467050444 pbc="F F F"
P        0.00000000       0.00000000       0.00000000       0.00000000       0.00000000      -0.00175856
P        0.00000000       0.00000000       5.94121212       0.00000000       0.00000000       0.00175856
2
Properties=species:S:1:pos:R:3:forces:R:3 energy=-3.779374323162577 pbc="F F F"
P        0.00000000       0.00000000       0.00000000       0.00000000       0.00000000       0.00307396
P        0.00000000       0.00000000       6.00000000       0.00000000       0.00000000      -0.00307396
