2
Properties=species:S:1:pos:R:3:forces:R:3 energy=6319.21237433825 pbc="F F F"
P        0.00000000       0.00000000       0.00000000       0.00000000       0.00000000 -125788.39843750
P        0.00000000       0.00000000       0.10000000       0.00000000       0.00000000  125788.39843750
2
Properties=species:S:1:pos:R:3:forces:R:3 energy=2378.7421594945004 pbc="F F F"
P        0.00000000       0.00000000       0.00000000       0.00000000       0.00000000  -32082.69335938
P        0.00000000       0.00000000       0.15959596       0.00000000       0.00000000   32082.69335938
2
Properties=species:S:1:pos:R:3:forces:R:3 energy=1214.9428430882504 pbc="F F F"
P        0.00000000       0.00000000       0.00000000       0.00000000       0.00000000  -11281.98242188
P        0.00000000       0.00000000       0.21919192       0.00000000       0.00000000   11281.98242188
2
Properties=species:S:1:pos:R:3:forces:R:3 energy=769.3567224827815 pbc="F F F"
P        0.00000000       0.00000000       0.00000000       0.00000000       0.00000000   -4776.24267578
P        0.00000000       0.00000000       0.27878788       0.00000000       0.00000000    4776.24267578
2
Properties=species:S:1:pos:R:3:forces:R:3 energy=569.8512903633788 pbc="F F F"
P        0.00000000       0.00000000       0.00000000       0.00000000       0.00000000   -2275.58789062
P        0.00000000       0.00000000       0.33838384       0.00000000       0.00000000    2275.58789062
2
Properties=species:S:1:pos:R:3:forces:R:3 energy=464.0479761702335 pbc="F F F"
P        0.00000000       0.00000000       0.00000000       0.00000000       0.00000000   -1452.69360352
P        0.00000000       0.00000000       0.39797980       0.00000000       0.00000000    1452.69360352
2
Properties=species:S:1:pos:R:3:forces:R:3 energy=388.48532361085324 pbc="F F F"
P        0.00000000       0.00000000       0.00000000       0.00000000       0.00000000   -1117.62841797
P        0.00000000       0.00000000       0.45757576       0.00000000       0.00000000    1117.62841797
2
Properties=species:S:1:pos:R:3:forces:R:3 energy=326.03515887611997 pbc="F F F"
P        0.00000000       0.00000000       0.00000000       0.00000000       0.00000000    -992.18200684
P        0.00000000       0.00000000       0.51717172       0.00000000       0.00000000     992.18200684
2
Properties=species:S:1:pos:R:3:forces:R:3 energy=269.78311429975594 pbc="F F F"
P        0.00000000       0.00000000       0.00000000       0.00000000       0.00000000    -889.12445068
P        0.00000000       0.00000000       0.57676768       0.00000000       0.00000000     889.12445068
2
Properties=species:S:1:pos:R:3:forces:R:3 energy=220.87109664855268 pbc="F F F"
P        0.00000000       0.00000000       0.00000000       0.00000000       0.00000000    -728.32629395
P        0.00000000       0.00000000       0.63636364       0.00000000       0.00000000     728.32629395
2
Properties=species:S:1:pos:R:3:forces:R:3 energy=181.84421094099292 pbc="F F F"
P        0.00000000       0.00000000       0.00000000       0.00000000       0.00000000    -593.50280762
P        0.00000000       0.00000000       0.69595960       0.00000000       0.00000000     593.50280762
2
Properties=species:S:1:pos:R:3:forces:R:3 energy=150.1899144936489 pbc="F F F"
P        0.00000000       0.00000000       0.00000000       0.00000000       0.00000000    -470.18386841
P        0.00000000       0.00000000       0.75555556       0.00000000       0.00000000     470.18386841
2
Properties=species:S:1:pos:R:3:forces:R:3 energy=124.6686977905254 pbc="F F F"
P        0.00000000       0.00000000       0.00000000       0.00000000       0.00000000    -397.63653564
P        0.00000000       0.00000000       0.81515152       0.00000000       0.00000000     397.63653564
2
Properties=species:S:1:pos:R:3:forces:R:3 energy=102.19628660298665 pbc="F F F"
P        0.00000000       0.00000000       0.00000000       0.00000000       0.00000000    -356.29556274
P        0.00000000       0.00000000       0.87474747       0.00000000       0.00000000     356.29556274
2
Properties=species:S:1:pos:R:3:forces:R:3 energy=82.18919256804749 pbc="F F F"
P        0.00000000       0.00000000       0.00000000       0.00000000       0.00000000    -316.57598877
P        0.00000000       0.00000000       0.93434343       0.00000000       0.00000000     316.57598877
2
Properties=species:S:1:pos:R:3:forces:R:3 energy=64.35143345474879 pbc="F F F"
P        0.00000000       0.00000000       0.00000000       0.00000000       0.00000000    -281.43875122
P        0.00000000       0.00000000       0.99393939       0.00000000       0.00000000     281.43875122
2
Properties=species:S:1:pos:R:3:forces:R:3 energy=48.806689510885164 pbc="F F F"
P        0.00000000       0.00000000       0.00000000       0.00000000       0.00000000    -239.74844360
P        0.00000000       0.00000000       1.05353535       0.00000000       0.00000000     239.74844360
2
Properties=species:S:1:pos:R:3:forces:R:3 energy=35.691187571075226 pbc="F F F"
P        0.00000000       0.00000000       0.00000000       0.00000000       0.00000000    -200.12710571
P        0.00000000       0.00000000       1.11313131       0.00000000       0.00000000     200.12710571
2
Properties=species:S:1:pos:R:3:forces:R:3 energy=25.12682269032448 pbc="F F F"
P        0.00000000       0.00000000       0.00000000       0.00000000       0.00000000    -155.15924072
P        0.00000000       0.00000000       1.17272727       0.00000000       0.00000000     155.15924072
2
Properties=species:S:1:pos:R:3:forces:R:3 energy=16.87050162512247 pbc="F F F"
P        0.00000000       0.00000000       0.00000000       0.00000000       0.00000000    -123.92443848
P        0.00000000       0.00000000       1.23232323       0.00000000       0.00000000     123.92443848
2
Properties=species:S:1:pos:R:3:forces:R:3 energy=10.272104888582502 pbc="F F F"
P        0.00000000       0.00000000       0.00000000       0.00000000       0.00000000     -97.82312012
P        0.00000000       0.00000000       1.29191919       0.00000000       0.00000000      97.82312012
2
Properties=species:S:1:pos:R:3:forces:R:3 energy=5.1448619226833845 pbc="F F F"
P        0.00000000       0.00000000       0.00000000       0.00000000       0.00000000     -75.00419617
P        0.00000000       0.00000000       1.35151515       0.00000000       0.00000000      75.00419617
2
Properties=species:S:1:pos:R:3:forces:R:3 energy=1.2376983451195784 pbc="F F F"
P        0.00000000       0.00000000       0.00000000       0.00000000       0.00000000     -56.86656570
P        0.00000000       0.00000000       1.41111111       0.00000000       0.00000000      56.86656570
2
Properties=species:S:1:pos:R:3:forces:R:3 energy=-1.7127761579342975 pbc="F F F"
P        0.00000000       0.00000000       0.00000000       0.00000000       0.00000000     -42.73811722
P        0.00000000       0.00000000       1.47070707       0.00000000       0.00000000      42.73811722
2
Properties=species:S:1:pos:R:3:forces:R:3 energy=-3.9180757561606616 pbc="F F F"
P        0.00000000       0.00000000       0.00000000       0.00000000       0.00000000     -31.72278976
P        0.00000000       0.00000000       1.53030303       0.00000000       0.00000000      31.72278976
2
Properties=species:S:1:pos:R:3:forces:R:3 energy=-5.541027555677384 pbc="F F F"
P        0.00000000       0.00000000       0.00000000       0.00000000       0.00000000     -23.08651161
P        0.00000000       0.00000000       1.58989899       0.00000000       0.00000000      23.08651161
2
Properties=species:S:1:pos:R:3:forces:R:3 energy=-6.705798540303947 pbc="F F F"
P        0.00000000       0.00000000       0.00000000       0.00000000       0.00000000     -16.26723480
P        0.00000000       0.00000000       1.64949495       0.00000000       0.00000000      16.26723480
2
Properties=species:S:1:pos:R:3:forces:R:3 energy=-7.507935107830617 pbc="F F F"
P        0.00000000       0.00000000       0.00000000       0.00000000       0.00000000     -10.86087036
P        0.00000000       0.00000000       1.70909091       0.00000000       0.00000000      10.86087036
2
Properties=species:S:1:pos:R:3:forces:R:3 energy=-8.022784255818705 pbc="F F F"
P        0.00000000       0.00000000       0.00000000       0.00000000       0.00000000      -6.58777475
P        0.00000000       0.00000000       1.76868687       0.00000000       0.00000000       6.58777475
2
Properties=species:S:1:pos:R:3:forces:R:3 energy=-8.311754949331872 pbc="F F F"
P        0.00000000       0.00000000       0.00000000       0.00000000       0.00000000      -3.25303340
P        0.00000000       0.00000000       1.82828283       0.00000000       0.00000000       3.25303340
2
Properties=species:S:1:pos:R:3:forces:R:3 energy=-8.426223821239056 pbc="F F F"
P        0.00000000       0.00000000       0.00000000       0.00000000       0.00000000      -0.70965040
P        0.00000000       0.00000000       1.88787879       0.00000000       0.00000000       0.70965040
2
Properties=species:S:1:pos:R:3:forces:R:3 energy=-8.40960523319201 pbc="F F F"
P        0.00000000       0.00000000       0.00000000       0.00000000       0.00000000       1.16571641
P        0.00000000       0.00000000       1.94747475       0.00000000       0.00000000      -1.16571641
2
Properties=species:S:1:pos:R:3:forces:R:3 energy=-8.298244271245375 pbc="F F F"
P        0.00000000       0.00000000       0.00000000       0.00000000       0.00000000       2.48929429
P        0.00000000       0.00000000       2.00707071       0.00000000       0.00000000      -2.48929429
2
Properties=species:S:1:pos:R:3:forces:R:3 energy=-8.121509770284213 pbc="F F F"
P        0.00000000       0.00000000       0.00000000       0.00000000       0.00000000       3.37973571
P        0.00000000       0.00000000       2.06666667       0.00000000       0.00000000      -3.37973571
2
Properties=species:S:1:pos:R:3:forces:R:3 energy=-7.901652327424647 pbc="F F F"
P        0.00000000       0.00000000       0.00000000       0.00000000       0.00000000       3.95525265
P        0.00000000       0.00000000       2.12626263       0.00000000       0.00000000      -3.95525265
2
Properties=species:S:1:pos:R:3:forces:R:3 energy=-7.654244725317811 pbc="F F F"
P        0.00000000       0.00000000       0.00000000       0.00000000       0.00000000       4.31980753
P        0.00000000       0.00000000       2.18585859       0.00000000       0.00000000      -4.31980753
2
Properties=species:S:1:pos:R:3:forces:R:3 energy=-7.389422868343943 pbc="F F F"
P        0.00000000       0.00000000       0.00000000       0.00000000       0.00000000       4.54940939
P        0.00000000       0.00000000       2.24545455       0.00000000       0.00000000      -4.54940939
2
Properties=species:S:1:pos:R:3:forces:R:3 energy=-7.113796968117215 pbc="F F F"
P        0.00000000       0.00000000       0.00000000       0.00000000       0.00000000       4.68724489
P        0.00000000       0.00000000       2.30505051       0.00000000       0.00000000      -4.68724489
2
Properties=species:S:1:pos:R:3:forces:R:3 energy=-6.832234809919279 pbc="F F F"
P        0.00000000       0.00000000       0.00000000       0.00000000       0.00000000       4.74940205
P        0.00000000       0.00000000       2.36464646       0.00000000       0.00000000      -4.74940205
2
Properties=species:S:1:pos:R:3:forces:R:3 energy=-6.5492316408345115 pbc="F F F"
P        0.00000000       0.00000000       0.00000000       0.00000000       0.00000000       4.73449755
P        0.00000000       0.00000000       2.42424242       0.00000000       0.00000000      -4.73449755
2
Properties=species:S:1:pos:R:3:forces:R:3 energy=-6.2696120867181735 pbc="F F F"
P        0.00000000       0.00000000       0.00000000       0.00000000       0.00000000       4.63468027
P        0.00000000       0.00000000       2.48383838       0.00000000       0.00000000      -4.63468027
2
Properties=species:S:1:pos:R:3:forces:R:3 energy=-5.998577477788478 pbc="F F F"
P        0.00000000       0.00000000       0.00000000       0.00000000       0.00000000       4.44665956
P        0.00000000       0.00000000       2.54343434       0.00000000       0.00000000      -4.44665956
2
Properties=species:S:1:pos:R:3:forces:R:3 energy=-5.7411795944743025 pbc="F F F"
P        0.00000000       0.00000000       0.00000000       0.00000000       0.00000000       4.17988539
P        0.00000000       0.00000000       2.60303030       0.00000000       0.00000000      -4.17988539
2
Properties=species:S:1:pos:R:3:forces:R:3 energy=-5.501477964292402 pbc="F F F"
P        0.00000000       0.00000000       0.00000000       0.00000000       0.00000000       3.85735321
P        0.00000000       0.00000000       2.66262626       0.00000000       0.00000000      -3.85735321
2
Properties=species:S:1:pos:R:3:forces:R:3 energy=-5.281927098613152 pbc="F F F"
P        0.00000000       0.00000000       0.00000000       0.00000000       0.00000000       3.50888014
P        0.00000000       0.00000000       2.72222222       0.00000000       0.00000000      -3.50888014
2
Properties=species:S:1:pos:R:3:forces:R:3 energy=-5.083223916961664 pbc="F F F"
P        0.00000000       0.00000000       0.00000000       0.00000000       0.00000000       3.16147137
P        0.00000000       0.00000000       2.78181818       0.00000000       0.00000000      -3.16147137
2
Properties=species:S:1:pos:R:3:forces:R:3 energy=-4.90471958837747 pbc="F F F"
P        0.00000000       0.00000000       0.00000000       0.00000000       0.00000000       2.83310580
P        0.00000000       0.00000000       2.84141414       0.00000000       0.00000000      -2.83310580
2
Properties=species:S:1:pos:R:3:forces:R:3 energy=-4.744994550113216 pbc="F F F"
P        0.00000000       0.00000000       0.00000000       0.00000000       0.00000000       2.53194332
P        0.00000000       0.00000000       2.90101010       0.00000000       0.00000000      -2.53194332
2
Properties=species:S:1:pos:R:3:forces:R:3 energy=-4.602375851371821 pbc="F F F"
P        0.00000000       0.00000000       0.00000000       0.00000000       0.00000000       2.25865912
P        0.00000000       0.00000000       2.96060606       0.00000000       0.00000000      -2.25865912
2
Properties=species:S:1:pos:R:3:forces:R:3 energy=-4.475306157340186 pbc="F F F"
P        0.00000000       0.00000000       0.00000000       0.00000000       0.00000000       2.00923109
P        0.00000000       0.00000000       3.02020202       0.00000000       0.00000000      -2.00923109
2
Properties=species:S:1:pos:R:3:forces:R:3 energy=-4.362519620100029 pbc="F F F"
P        0.00000000       0.00000000       0.00000000       0.00000000       0.00000000       1.77859759
P        0.00000000       0.00000000       3.07979798       0.00000000       0.00000000      -1.77859759
2
Properties=species:S:1:pos:R:3:forces:R:3 energy=-4.263002548618925 pbc="F F F"
P        0.00000000       0.00000000       0.00000000       0.00000000       0.00000000       1.56357372
P        0.00000000       0.00000000       3.13939394       0.00000000       0.00000000      -1.56357372
2
Properties=species:S:1:pos:R:3:forces:R:3 energy=-4.175864054234393 pbc="F F F"
P        0.00000000       0.00000000       0.00000000       0.00000000       0.00000000       1.36318827
P        0.00000000       0.00000000       3.19898990       0.00000000       0.00000000      -1.36318827
2
Properties=species:S:1:pos:R:3:forces:R:3 energy=-4.10022472002156 pbc="F F F"
P        0.00000000       0.00000000       0.00000000       0.00000000       0.00000000       1.17777669
P        0.00000000       0.00000000       3.25858586       0.00000000       0.00000000      -1.17777669
2
Properties=species:S:1:pos:R:3:forces:R:3 energy=-4.035170618325016 pbc="F F F"
P        0.00000000       0.00000000       0.00000000       0.00000000       0.00000000       1.00805116
P        0.00000000       0.00000000       3.31818182       0.00000000       0.00000000      -1.00805116
2
Properties=species:S:1:pos:R:3:forces:R:3 energy=-3.979751515468244 pbc="F F F"
P        0.00000000       0.00000000       0.00000000       0.00000000       0.00000000       0.85450774
P        0.00000000       0.00000000       3.37777778       0.00000000       0.00000000      -0.85450774
2
Properties=species:S:1:pos:R:3:forces:R:3 energy=-3.9329989729110686 pbc="F F F"
P        0.00000000       0.00000000       0.00000000       0.00000000       0.00000000       0.71714574
P        0.00000000       0.00000000       3.43737374       0.00000000       0.00000000      -0.71714574
2
Properties=species:S:1:pos:R:3:forces:R:3 energy=-3.893961598865534 pbc="F F F"
P        0.00000000       0.00000000       0.00000000       0.00000000       0.00000000       0.59546244
P        0.00000000       0.00000000       3.49696970       0.00000000       0.00000000      -0.59546244
2
Properties=species:S:1:pos:R:3:forces:R:3 energy=-3.86172985317175 pbc="F F F"
P        0.00000000       0.00000000       0.00000000       0.00000000       0.00000000       0.48859039
P        0.00000000       0.00000000       3.55656566       0.00000000       0.00000000      -0.48859039
2
Properties=species:S:1:pos:R:3:forces:R:3 energy=-3.8354526779137936 pbc="F F F"
P        0.00000000       0.00000000       0.00000000       0.00000000       0.00000000       0.39545462
P        0.00000000       0.00000000       3.61616162       0.00000000       0.00000000      -0.39545462
2
Properties=species:S:1:pos:R:3:forces:R:3 energy=-3.814345091136278 pbc="F F F"
P        0.00000000       0.00000000       0.00000000       0.00000000       0.00000000       0.31490034
P        0.00000000       0.00000000       3.67575758       0.00000000       0.00000000      -0.31490034
2
Properties=species:S:1:pos:R:3:forces:R:3 energy=-3.7976918011369056 pbc="F F F"
P        0.00000000       0.00000000       0.00000000       0.00000000       0.00000000       0.24578476
P        0.00000000       0.00000000       3.73535354       0.00000000       0.00000000      -0.24578476
2
Properties=species:S:1:pos:R:3:forces:R:3 energy=-3.78484427258361 pbc="F F F"
P        0.00000000       0.00000000       0.00000000       0.00000000       0.00000000       0.18699583
P        0.00000000       0.00000000       3.79494949       0.00000000       0.00000000      -0.18699583
2
Properties=species:S:1:pos:R:3:forces:R:3 energy=-3.775219197800593 pbc="F F F"
P        0.00000000       0.00000000       0.00000000       0.00000000       0.00000000       0.13747537
P        0.00000000       0.00000000       3.85454545       0.00000000       0.00000000      -0.13747537
2
Properties=species:S:1:pos:R:3:forces:R:3 energy=-3.7682941006957718 pbc="F F F"
P        0.00000000       0.00000000       0.00000000       0.00000000       0.00000000       0.09623216
P        0.00000000       0.00000000       3.91414141       0.00000000       0.00000000      -0.09623216
2
Properties=species:S:1:pos:R:3:forces:R:3 energy=-3.7636028171431586 pbc="F F F"
P        0.00000000       0.00000000       0.00000000       0.00000000       0.00000000       0.06235520
P        0.00000000       0.00000000       3.97373737       0.00000000       0.00000000      -0.06235520
2
Properties=species:S:1:pos:R:3:forces:R:3 energy=-3.760731616929154 pbc="F F F"
P        0.00000000       0.00000000       0.00000000       0.00000000       0.00000000       0.03502694
P        0.00000000       0.00000000       4.03333333       0.00000000       0.00000000      -0.03502694
2
Properties=species:S:1:pos:R:3:forces:R:3 energy=-3.7593123538021125 pbc="F F F"
P        0.00000000       0.00000000       0.00000000       0.00000000       0.00000000       0.01351695
P        0.00000000       0.00000000       4.09292929       0.00000000       0.00000000      -0.01351695
2
Properties=species:S:1:pos:R:3:forces:R:3 energy=-3.759018061480234 pbc="F F F"
P        0.00000000       0.00000000       0.00000000       0.00000000       0.00000000      -0.00282934
P        0.00000000       0.00000000       4.15252525       0.00000000       0.00000000       0.00282934
2
Properties=species:S:1:pos:R:3:forces:R:3 energy=-3.7595593108486094 pbc="F F F"
P        0.00000000       0.00000000       0.00000000       0.00000000       0.00000000      -0.01462820
P        0.00000000       0.00000000       4.21212121       0.00000000       0.00000000       0.01462820
2
Properties=species:S:1:pos:R:3:forces:R:3 energy=-3.760683407588378 pbc="F F F"
P        0.00000000       0.00000000       0.00000000       0.00000000       0.00000000      -0.02248897
P        0.00000000       0.00000000       4.27171717       0.00000000       0.00000000       0.02248897
2
Properties=species:S:1:pos:R:3:forces:R:3 energy=-3.7621741474225003 pbc="F F F"
P        0.00000000       0.00000000       0.00000000       0.00000000       0.00000000      -0.02703973
P        0.00000000       0.00000000       4.33131313       0.00000000       0.00000000       0.02703973
2
Properties=species:S:1:pos:R:3:forces:R:3 energy=-3.7638534771262595 pbc="F F F"
P        0.00000000       0.00000000       0.00000000       0.00000000       0.00000000      -0.02893121
P        0.00000000       0.00000000       4.39090909       0.00000000       0.00000000       0.02893121
2
Properties=species:S:1:pos:R:3:forces:R:3 energy=-3.7655826992914436 pbc="F F F"
P        0.00000000       0.00000000       0.00000000       0.00000000       0.00000000      -0.02881867
P        0.00000000       0.00000000       4.45050505       0.00000000       0.00000000       0.02881867
2
Properties=species:S:1:pos:R:3:forces:R:3 energy=-3.7672611035874035 pbc="F F F"
P        0.00000000       0.00000000       0.00000000       0.00000000       0.00000000      -0.02732706
P        0.00000000       0.00000000       4.51010101       0.00000000       0.00000000       0.02732706
2
Properties=species:S:1:pos:R:3:forces:R:3 energy=-3.7688235699039727 pbc="F F F"
P        0.00000000       0.00000000       0.00000000       0.00000000       0.00000000      -0.02500970
P        0.00000000       0.00000000       4.56969697       0.00000000       0.00000000       0.02500970
2
Properties=species:S:1:pos:R:3:forces:R:3 energy=-3.770234521523875 pbc="F F F"
P        0.00000000       0.00000000       0.00000000       0.00000000       0.00000000      -0.02231433
P        0.00000000       0.00000000       4.62929293       0.00000000       0.00000000       0.02231433
2
Properties=species:S:1:pos:R:3:forces:R:3 energy=-3.7714824399114932 pbc="F F F"
P        0.00000000       0.00000000       0.00000000       0.00000000       0.00000000      -0.01957281
P        0.00000000       0.00000000       4.68888889       0.00000000       0.00000000       0.01957281
2
Properties=species:S:1:pos:R:3:forces:R:3 energy=-3.772571149347484 pbc="F F F"
P        0.00000000       0.00000000       0.00000000       0.00000000       0.00000000      -0.01700993
P        0.00000000       0.00000000       4.74848485       0.00000000       0.00000000       0.01700993
2
Properties=species:S:1:pos:R:3:forces:R:3 energy=-3.7735162652007137 pbc="F F F"
P        0.00000000       0.00000000       0.00000000       0.00000000       0.00000000      -0.01476402
P        0.00000000       0.00000000       4.80808081       0.00000000       0.00000000       0.01476402
2
Properties=species:S:1:pos:R:3:forces:R:3 energy=-3.7743388762119094 pbc="F F F"
P        0.00000000       0.00000000       0.00000000       0.00000000       0.00000000      -0.01290790
P        0.00000000       0.00000000       4.86767677       0.00000000       0.00000000       0.01290790
2
Properties=species:S:1:pos:R:3:forces:R:3 energy=-3.7750627103971954 pbc="F F F"
P        0.00000000       0.00000000       0.00000000       0.00000000       0.00000000      -0.01144448
P        0.00000000       0.00000000       4.92727273       0.00000000       0.00000000       0.01144448
2
Properties=species:S:1:pos:R:3:forces:R:3 energy=-3.7757089349808215 pbc="F F F"
P        0.00000000       0.00000000       0.00000000       0.00000000       0.00000000      -0.01027643
P        0.00000000       0.00000000       4.98686869       0.00000000       0.00000000       0.01027643
2
Properties=species:S:1:pos:R:3:forces:R:3 energy=-3.7762886054042286 pbc="F F F"
P        0.00000000       0.00000000       0.00000000       0.00000000       0.00000000      -0.00916275
P        0.00000000       0.00000000       5.04646465       0.00000000       0.00000000       0.00916275
2
Properties=species:S:1:pos:R:3:forces:R:3 energy=-3.7767945575104473 pbc="F F F"
P        0.00000000       0.00000000       0.00000000       0.00000000       0.00000000      -0.00772792
P        0.00000000       0.00000000       5.10606061       0.00000000       0.00000000       0.00772792
2
Properties=species:S:1:pos:R:3:forces:R:3 energy=-3.7771957599420216 pbc="F F F"
P        0.00000000       0.00000000       0.00000000       0.00000000       0.00000000      -0.00559169
P        0.00000000       0.00000000       5.16565657       0.00000000       0.00000000       0.00559169
2
Properties=species:S:1:pos:R:3:forces:R:3 energy=-3.7774435217355755 pbc="F F F"
P        0.00000000       0.00000000       0.00000000       0.00000000       0.00000000      -0.00258221
P        0.00000000       0.00000000       5.22525253       0.00000000       0.00000000       0.00258221
2
Properties=species:S:1:pos:R:3:forces:R:3 energy=-3.777489631140758 pbc="F F F"
P        0.00000000       0.00000000       0.00000000       0.00000000       0.00000000       0.00111691
P        0.00000000       0.00000000       5.28484848       0.00000000       0.00000000      -0.00111691
2
Properties=species:S:1:pos:R:3:forces:R:3 energy=-3.777305701975216 pbc="F F F"
P        0.00000000       0.00000000       0.00000000       0.00000000       0.00000000       0.00503730
P        0.00000000       0.00000000       5.34444444       0.00000000       0.00000000      -0.00503730
2
Properties=species:S:1:pos:R:3:forces:R:3 energy=-3.776903198013394 pbc="F F F"
P        0.00000000       0.00000000       0.00000000       0.00000000       0.00000000       0.00819351
P        0.00000000       0.00000000       5.40404040       0.00000000       0.00000000      -0.00819351
2
Properties=species:S:1:pos:R:3:forces:R:3 energy=-3.776392826535197 pbc="F F F"
P        0.00000000       0.00000000       0.00000000       0.00000000       0.00000000       0.00813711
P        0.00000000       0.00000000       5.46363636       0.00000000       0.00000000      -0.00813711
2
Properties=species:S:1:pos:R:3:forces:R:3 energy=-3.776028642595303 pbc="F F F"
P        0.00000000       0.00000000       0.00000000       0.00000000       0.00000000       0.00359203
P        0.00000000       0.00000000       5.52323232       0.00000000       0.00000000      -0.00359203
2
Properties=species:S:1:pos:R:3:forces:R:3 energy=-3.7759522385590727 pbc="F F F"
P        0.00000000       0.00000000       0.00000000       0.00000000       0.00000000      -0.00043263
P        0.00000000       0.00000000       5.58282828       0.00000000       0.00000000       0.00043263
2
Properties=species:S:1:pos:R:3:forces:R:3 energy=-3.7760160668279505 pbc="F F F"
P        0.00000000       0.00000000       0.00000000       0.00000000       0.00000000      -0.00157650
P        0.00000000       0.00000000       5.64242424       0.00000000       0.00000000       0.00157650
2
Properties=species:S:1:pos:R:3:forces:R:3 energy=-3.7761968766625564 pbc="F F F"
P        0.00000000       0.00000000       0.00000000       0.00000000       0.00000000      -0.00548087
P        0.00000000       0.00000000       5.70202020       0.00000000       0.00000000       0.00548087
2
Properties=species:S:1:pos:R:3:forces:R:3 energy=-3.776793353285318 pbc="F F F"
P        0.00000000       0.00000000       0.00000000       0.00000000       0.00000000      -0.01512536
P        0.00000000       0.00000000       5.76161616       0.00000000       0.00000000       0.01512536
2
Properties=species:S:1:pos:R:3:forces:R:3 energy=-3.7779232927011677 pbc="F F F"
P        0.00000000       0.00000000       0.00000000       0.00000000       0.00000000      -0.02085737
P        0.00000000       0.00000000       5.82121212       0.00000000       0.00000000       0.02085737
2
Properties=species:S:1:pos:R:3:forces:R:3 energy=-3.7790021794730926 pbc="F F F"
P        0.00000000       0.00000000       0.00000000       0.00000000       0.00000000      -0.01363676
P        0.00000000       0.00000000       5.88080808       0.00000000       0.00000000       0.01363676
2
Properties=species:S:1:pos:R:3:forces:R:3 energy=-3.779461542296944 pbc="F F F"
P        0.00000000       0.00000000       0.00000000       0.00000000       0.00000000      -0.00189609
P        0.00000000       0.00000000       5.94040404       0.00000000       0.00000000       0.00189609
2
Properties=species:S:1:pos:R:3:forces:R:3 energy=-3.779374323162577 pbc="F F F"
P        0.00000000       0.00000000       0.00000000       0.00000000       0.00000000       0.00307396
P        0.00000000       0.00000000       6.00000000       0.00000000       0.00000000      -0.00307396
