2
Properties=species:S:1:pos:R:3:forces:R:3 energy=93040.65842457238 pbc="F F F"
Pa       0.00000000       0.00000000       0.00000000       0.00000000       0.00000000 -2759583.00000000
Pa       0.00000000       0.00000000       0.10000000       0.00000000       0.00000000 2759583.00000000
2
Properties=species:S:1:pos:R:3:forces:R:3 energy=14752.101783947375 pbc="F F F"
Pa       0.00000000       0.00000000       0.00000000       0.00000000       0.00000000 -551268.68750000
Pa       0.00000000       0.00000000       0.15959596       0.00000000       0.00000000  551268.68750000
2
Properties=species:S:1:pos:R:3:forces:R:3 energy=-3723.208762927625 pbc="F F F"
Pa       0.00000000       0.00000000       0.00000000       0.00000000       0.00000000 -160197.12500000
Pa       0.00000000       0.00000000       0.21919192       0.00000000       0.00000000  160197.12500000
2
Properties=species:S:1:pos:R:3:forces:R:3 energy=-9532.245872302625 pbc="F F F"
Pa       0.00000000       0.00000000       0.00000000       0.00000000       0.00000000  -54478.80859375
Pa       0.00000000       0.00000000       0.27878788       0.00000000       0.00000000   54478.80859375
2
Properties=species:S:1:pos:R:3:forces:R:3 energy=-11489.353294164954 pbc="F F F"
Pa       0.00000000       0.00000000       0.00000000       0.00000000       0.00000000  -16722.81054688
Pa       0.00000000       0.00000000       0.33838384       0.00000000       0.00000000   16722.81054688
2
Properties=species:S:1:pos:R:3:forces:R:3 energy=-11903.310325414954 pbc="F F F"
Pa       0.00000000       0.00000000       0.00000000       0.00000000       0.00000000    1118.48840332
Pa       0.00000000       0.00000000       0.39797980       0.00000000       0.00000000   -1118.48840332
2
Properties=species:S:1:pos:R:3:forces:R:3 energy=-11474.791770714783 pbc="F F F"
Pa       0.00000000       0.00000000       0.00000000       0.00000000       0.00000000   12708.29785156
Pa       0.00000000       0.00000000       0.45757576       0.00000000       0.00000000  -12708.29785156
2
Properties=species:S:1:pos:R:3:forces:R:3 energy=-10430.679466014612 pbc="F F F"
Pa       0.00000000       0.00000000       0.00000000       0.00000000       0.00000000   22068.01367188
Pa       0.00000000       0.00000000       0.51717172       0.00000000       0.00000000  -22068.01367188
2
Properties=species:S:1:pos:R:3:forces:R:3 energy=-8879.343528501939 pbc="F F F"
Pa       0.00000000       0.00000000       0.00000000       0.00000000       0.00000000   29630.36523438
Pa       0.00000000       0.00000000       0.57676768       0.00000000       0.00000000  -29630.36523438
2
Properties=species:S:1:pos:R:3:forces:R:3 energy=-6957.333274557675 pbc="F F F"
Pa       0.00000000       0.00000000       0.00000000       0.00000000       0.00000000   34243.48437500
Pa       0.00000000       0.00000000       0.63636364       0.00000000       0.00000000  -34243.48437500
2
Properties=species:S:1:pos:R:3:forces:R:3 energy=-4791.101340900569 pbc="F F F"
Pa       0.00000000       0.00000000       0.00000000       0.00000000       0.00000000   39292.77734375
Pa       0.00000000       0.00000000       0.69595960       0.00000000       0.00000000  -39292.77734375
2
Properties=species:S:1:pos:R:3:forces:R:3 energy=-2649.899924796245 pbc="F F F"
Pa       0.00000000       0.00000000       0.00000000       0.00000000       0.00000000   31686.37109375
Pa       0.00000000       0.00000000       0.75555556       0.00000000       0.00000000  -31686.37109375
2
Properties=species:S:1:pos:R:3:forces:R:3 energy=-1068.629416844361 pbc="F F F"
Pa       0.00000000       0.00000000       0.00000000       0.00000000       0.00000000   19683.58007812
Pa       0.00000000       0.00000000       0.81515152       0.00000000       0.00000000  -19683.58007812
2
Properties=species:S:1:pos:R:3:forces:R:3 energy=-208.86963577050253 pbc="F F F"
Pa       0.00000000       0.00000000       0.00000000       0.00000000       0.00000000    9963.68164062
Pa       0.00000000       0.00000000       0.87474747       0.00000000       0.00000000   -9963.68164062
2
Properties=species:S:1:pos:R:3:forces:R:3 energy=155.47574718602422 pbc="F F F"
Pa       0.00000000       0.00000000       0.00000000       0.00000000       0.00000000    3151.45312500
Pa       0.00000000       0.00000000       0.93434343       0.00000000       0.00000000   -3151.45312500
2
Properties=species:S:1:pos:R:3:forces:R:3 energy=223.03424977609978 pbc="F F F"
Pa       0.00000000       0.00000000       0.00000000       0.00000000       0.00000000     -95.72133636
Pa       0.00000000       0.00000000       0.99393939       0.00000000       0.00000000      95.72133636
2
Properties=species:S:1:pos:R:3:forces:R:3 energy=190.80275919408413 pbc="F F F"
Pa       0.00000000       0.00000000       0.00000000       0.00000000       0.00000000    -650.86016846
Pa       0.00000000       0.00000000       1.05353535       0.00000000       0.00000000     650.86016846
2
Properties=species:S:1:pos:R:3:forces:R:3 energy=161.11892198770872 pbc="F F F"
Pa       0.00000000       0.00000000       0.00000000       0.00000000       0.00000000    -350.34765625
Pa       0.00000000       0.00000000       1.11313131       0.00000000       0.00000000     350.34765625
2
Properties=species:S:1:pos:R:3:forces:R:3 energy=141.69982499965087 pbc="F F F"
Pa       0.00000000       0.00000000       0.00000000       0.00000000       0.00000000    -360.17376709
Pa       0.00000000       0.00000000       1.17272727       0.00000000       0.00000000     360.17376709
2
Properties=species:S:1:pos:R:3:forces:R:3 energy=120.66656201792448 pbc="F F F"
Pa       0.00000000       0.00000000       0.00000000       0.00000000       0.00000000    -341.38543701
Pa       0.00000000       0.00000000       1.23232323       0.00000000       0.00000000     341.38543701
2
Properties=species:S:1:pos:R:3:forces:R:3 energy=101.11394360439706 pbc="F F F"
Pa       0.00000000       0.00000000       0.00000000       0.00000000       0.00000000    -314.89941406
Pa       0.00000000       0.00000000       1.29191919       0.00000000       0.00000000     314.89941406
2
Properties=species:S:1:pos:R:3:forces:R:3 energy=83.0986485817265 pbc="F F F"
Pa       0.00000000       0.00000000       0.00000000       0.00000000       0.00000000    -289.31564331
Pa       0.00000000       0.00000000       1.35151515       0.00000000       0.00000000     289.31564331
2
Properties=species:S:1:pos:R:3:forces:R:3 energy=66.72238452245043 pbc="F F F"
Pa       0.00000000       0.00000000       0.00000000       0.00000000       0.00000000    -259.51388550
Pa       0.00000000       0.00000000       1.41111111       0.00000000       0.00000000     259.51388550
2
Properties=species:S:1:pos:R:3:forces:R:3 energy=52.21274779822688 pbc="F F F"
Pa       0.00000000       0.00000000       0.00000000       0.00000000       0.00000000    -227.40525818
Pa       0.00000000       0.00000000       1.47070707       0.00000000       0.00000000     227.40525818
2
Properties=species:S:1:pos:R:3:forces:R:3 energy=39.59390844497244 pbc="F F F"
Pa       0.00000000       0.00000000       0.00000000       0.00000000       0.00000000    -196.35304260
Pa       0.00000000       0.00000000       1.53030303       0.00000000       0.00000000     196.35304260
2
Properties=species:S:1:pos:R:3:forces:R:3 energy=28.77842609867735 pbc="F F F"
Pa       0.00000000       0.00000000       0.00000000       0.00000000       0.00000000    -166.83598328
Pa       0.00000000       0.00000000       1.58989899       0.00000000       0.00000000     166.83598328
2
Properties=species:S:1:pos:R:3:forces:R:3 energy=19.683361763447845 pbc="F F F"
Pa       0.00000000       0.00000000       0.00000000       0.00000000       0.00000000    -138.58595276
Pa       0.00000000       0.00000000       1.64949495       0.00000000       0.00000000     138.58595276
2
Properties=species:S:1:pos:R:3:forces:R:3 energy=12.232793617024159 pbc="F F F"
Pa       0.00000000       0.00000000       0.00000000       0.00000000       0.00000000    -111.75903320
Pa       0.00000000       0.00000000       1.70909091       0.00000000       0.00000000     111.75903320
2
Properties=species:S:1:pos:R:3:forces:R:3 energy=6.310629154919562 pbc="F F F"
Pa       0.00000000       0.00000000       0.00000000       0.00000000       0.00000000     -87.53190613
Pa       0.00000000       0.00000000       1.76868687       0.00000000       0.00000000      87.53190613
2
Properties=species:S:1:pos:R:3:forces:R:3 energy=1.7282299180834606 pbc="F F F"
Pa       0.00000000       0.00000000       0.00000000       0.00000000       0.00000000     -66.86902618
Pa       0.00000000       0.00000000       1.82828283       0.00000000       0.00000000      66.86902618
2
Properties=species:S:1:pos:R:3:forces:R:3 energy=-1.7333679399424062 pbc="F F F"
Pa       0.00000000       0.00000000       0.00000000       0.00000000       0.00000000     -49.91904831
Pa       0.00000000       0.00000000       1.88787879       0.00000000       0.00000000      49.91904831
2
Properties=species:S:1:pos:R:3:forces:R:3 energy=-4.2952516088104895 pbc="F F F"
Pa       0.00000000       0.00000000       0.00000000       0.00000000       0.00000000     -36.66031647
Pa       0.00000000       0.00000000       1.94747475       0.00000000       0.00000000      36.66031647
2
Properties=species:S:1:pos:R:3:forces:R:3 energy=-6.170255594119777 pbc="F F F"
Pa       0.00000000       0.00000000       0.00000000       0.00000000       0.00000000     -26.77016449
Pa       0.00000000       0.00000000       2.00707071       0.00000000       0.00000000      26.77016449
2
Properties=species:S:1:pos:R:3:forces:R:3 energy=-7.537777613590447 pbc="F F F"
Pa       0.00000000       0.00000000       0.00000000       0.00000000       0.00000000     -19.48500443
Pa       0.00000000       0.00000000       2.06666667       0.00000000       0.00000000      19.48500443
2
Properties=species:S:1:pos:R:3:forces:R:3 energy=-8.528338095030229 pbc="F F F"
Pa       0.00000000       0.00000000       0.00000000       0.00000000       0.00000000     -14.00116253
Pa       0.00000000       0.00000000       2.12626263       0.00000000       0.00000000      14.00116253
2
Properties=species:S:1:pos:R:3:forces:R:3 energy=-9.230417092851296 pbc="F F F"
Pa       0.00000000       0.00000000       0.00000000       0.00000000       0.00000000      -9.72354507
Pa       0.00000000       0.00000000       2.18585859       0.00000000       0.00000000       9.72354507
2
Properties=species:S:1:pos:R:3:forces:R:3 energy=-9.703681725496244 pbc="F F F"
Pa       0.00000000       0.00000000       0.00000000       0.00000000       0.00000000      -6.27594185
Pa       0.00000000       0.00000000       2.24545455       0.00000000       0.00000000       6.27594185
2
Properties=species:S:1:pos:R:3:forces:R:3 energy=-9.990745418582671 pbc="F F F"
Pa       0.00000000       0.00000000       0.00000000       0.00000000       0.00000000      -3.44959044
Pa       0.00000000       0.00000000       2.30505051       0.00000000       0.00000000       3.44959044
2
Properties=species:S:1:pos:R:3:forces:R:3 energy=-10.124840265463824 pbc="F F F"
Pa       0.00000000       0.00000000       0.00000000       0.00000000       0.00000000      -1.12792444
Pa       0.00000000       0.00000000       2.36464646       0.00000000       0.00000000       1.12792444
2
Properties=species:S:1:pos:R:3:forces:R:3 energy=-10.133941719332205 pbc="F F F"
Pa       0.00000000       0.00000000       0.00000000       0.00000000       0.00000000       0.75097543
Pa       0.00000000       0.00000000       2.42424242       0.00000000       0.00000000      -0.75097543
2
Properties=species:S:1:pos:R:3:forces:R:3 energy=-10.043926056825727 pbc="F F F"
Pa       0.00000000       0.00000000       0.00000000       0.00000000       0.00000000       2.19580579
Pa       0.00000000       0.00000000       2.48383838       0.00000000       0.00000000      -2.19580579
2
Properties=species:S:1:pos:R:3:forces:R:3 energy=-9.881288476542373 pbc="F F F"
Pa       0.00000000       0.00000000       0.00000000       0.00000000       0.00000000       3.18536162
Pa       0.00000000       0.00000000       2.54343434       0.00000000       0.00000000      -3.18536162
2
Properties=species:S:1:pos:R:3:forces:R:3 energy=-9.673084785522699 pbc="F F F"
Pa       0.00000000       0.00000000       0.00000000       0.00000000       0.00000000       3.73354006
Pa       0.00000000       0.00000000       2.60303030       0.00000000       0.00000000      -3.73354006
2
Properties=species:S:1:pos:R:3:forces:R:3 energy=-9.443329523412245 pbc="F F F"
Pa       0.00000000       0.00000000       0.00000000       0.00000000       0.00000000       3.92838454
Pa       0.00000000       0.00000000       2.66262626       0.00000000       0.00000000      -3.92838454
2
Properties=species:S:1:pos:R:3:forces:R:3 energy=-9.209322320295719 pbc="F F F"
Pa       0.00000000       0.00000000       0.00000000       0.00000000       0.00000000       3.89747262
Pa       0.00000000       0.00000000       2.72222222       0.00000000       0.00000000      -3.89747262
2
Properties=species:S:1:pos:R:3:forces:R:3 energy=-8.98101661498468 pbc="F F F"
Pa       0.00000000       0.00000000       0.00000000       0.00000000       0.00000000       3.75259185
Pa       0.00000000       0.00000000       2.78181818       0.00000000       0.00000000      -3.75259185
2
Properties=species:S:1:pos:R:3:forces:R:3 energy=-8.762857119328201 pbc="F F F"
Pa       0.00000000       0.00000000       0.00000000       0.00000000       0.00000000       3.56548882
Pa       0.00000000       0.00000000       2.84141414       0.00000000       0.00000000      -3.56548882
2
Properties=species:S:1:pos:R:3:forces:R:3 energy=-8.556146467071143 pbc="F F F"
Pa       0.00000000       0.00000000       0.00000000       0.00000000       0.00000000       3.37229729
Pa       0.00000000       0.00000000       2.90101010       0.00000000       0.00000000      -3.37229729
2
Properties=species:S:1:pos:R:3:forces:R:3 energy=-8.360724013432211 pbc="F F F"
Pa       0.00000000       0.00000000       0.00000000       0.00000000       0.00000000       3.18811989
Pa       0.00000000       0.00000000       2.96060606       0.00000000       0.00000000      -3.18811989
2
Properties=species:S:1:pos:R:3:forces:R:3 energy=-8.175818597340859 pbc="F F F"
Pa       0.00000000       0.00000000       0.00000000       0.00000000       0.00000000       3.02054119
Pa       0.00000000       0.00000000       3.02020202       0.00000000       0.00000000      -3.02054119
2
Properties=species:S:1:pos:R:3:forces:R:3 energy=-8.000236255222672 pbc="F F F"
Pa       0.00000000       0.00000000       0.00000000       0.00000000       0.00000000       2.87635040
Pa       0.00000000       0.00000000       3.07979798       0.00000000       0.00000000      -2.87635040
2
Properties=species:S:1:pos:R:3:forces:R:3 energy=-7.832412706428839 pbc="F F F"
Pa       0.00000000       0.00000000       0.00000000       0.00000000       0.00000000       2.76047778
Pa       0.00000000       0.00000000       3.13939394       0.00000000       0.00000000      -2.76047778
2
Properties=species:S:1:pos:R:3:forces:R:3 energy=-7.670665427366597 pbc="F F F"
Pa       0.00000000       0.00000000       0.00000000       0.00000000       0.00000000       2.67164731
Pa       0.00000000       0.00000000       3.19898990       0.00000000       0.00000000      -2.67164731
2
Properties=species:S:1:pos:R:3:forces:R:3 energy=-7.513612010413218 pbc="F F F"
Pa       0.00000000       0.00000000       0.00000000       0.00000000       0.00000000       2.60099888
Pa       0.00000000       0.00000000       3.25858586       0.00000000       0.00000000      -2.60099888
2
Properties=species:S:1:pos:R:3:forces:R:3 energy=-7.360541510692453 pbc="F F F"
Pa       0.00000000       0.00000000       0.00000000       0.00000000       0.00000000       2.53573656
Pa       0.00000000       0.00000000       3.31818182       0.00000000       0.00000000      -2.53573656
2
Properties=species:S:1:pos:R:3:forces:R:3 energy=-7.211488579245444 pbc="F F F"
Pa       0.00000000       0.00000000       0.00000000       0.00000000       0.00000000       2.46481133
Pa       0.00000000       0.00000000       3.37777778       0.00000000       0.00000000      -2.46481133
2
Properties=species:S:1:pos:R:3:forces:R:3 energy=-7.066983486318225 pbc="F F F"
Pa       0.00000000       0.00000000       0.00000000       0.00000000       0.00000000       2.38265848
Pa       0.00000000       0.00000000       3.43737374       0.00000000       0.00000000      -2.38265848
2
Properties=species:S:1:pos:R:3:forces:R:3 energy=-6.927718804188661 pbc="F F F"
Pa       0.00000000       0.00000000       0.00000000       0.00000000       0.00000000       2.28928518
Pa       0.00000000       0.00000000       3.49696970       0.00000000       0.00000000      -2.28928518
2
Properties=species:S:1:pos:R:3:forces:R:3 energy=-6.7942795506769595 pbc="F F F"
Pa       0.00000000       0.00000000       0.00000000       0.00000000       0.00000000       2.18786168
Pa       0.00000000       0.00000000       3.55656566       0.00000000       0.00000000      -2.18786168
2
Properties=species:S:1:pos:R:3:forces:R:3 energy=-6.66703043216495 pbc="F F F"
Pa       0.00000000       0.00000000       0.00000000       0.00000000       0.00000000       2.08200407
Pa       0.00000000       0.00000000       3.61616162       0.00000000       0.00000000      -2.08200407
2
Properties=species:S:1:pos:R:3:forces:R:3 energy=-6.546157716566985 pbc="F F F"
Pa       0.00000000       0.00000000       0.00000000       0.00000000       0.00000000       1.97424066
Pa       0.00000000       0.00000000       3.67575758       0.00000000       0.00000000      -1.97424066
2
Properties=species:S:1:pos:R:3:forces:R:3 energy=-6.431730897378813 pbc="F F F"
Pa       0.00000000       0.00000000       0.00000000       0.00000000       0.00000000       1.86583209
Pa       0.00000000       0.00000000       3.73535354       0.00000000       0.00000000      -1.86583209
2
Properties=species:S:1:pos:R:3:forces:R:3 energy=-6.323769235467818 pbc="F F F"
Pa       0.00000000       0.00000000       0.00000000       0.00000000       0.00000000       1.75726366
Pa       0.00000000       0.00000000       3.79494949       0.00000000       0.00000000      -1.75726366
2
Properties=species:S:1:pos:R:3:forces:R:3 energy=-6.22227914244069 pbc="F F F"
Pa       0.00000000       0.00000000       0.00000000       0.00000000       0.00000000       1.64867449
Pa       0.00000000       0.00000000       3.85454545       0.00000000       0.00000000      -1.64867449
2
Properties=species:S:1:pos:R:3:forces:R:3 energy=-6.127259826661592 pbc="F F F"
Pa       0.00000000       0.00000000       0.00000000       0.00000000       0.00000000       1.54016614
Pa       0.00000000       0.00000000       3.91414141       0.00000000       0.00000000      -1.54016614
2
Properties=species:S:1:pos:R:3:forces:R:3 energy=-6.038697621891416 pbc="F F F"
Pa       0.00000000       0.00000000       0.00000000       0.00000000       0.00000000       1.43197370
Pa       0.00000000       0.00000000       3.97373737       0.00000000       0.00000000      -1.43197370
2
Properties=species:S:1:pos:R:3:forces:R:3 energy=-5.956562185261803 pbc="F F F"
Pa       0.00000000       0.00000000       0.00000000       0.00000000       0.00000000       1.32470000
Pa       0.00000000       0.00000000       4.03333333       0.00000000       0.00000000      -1.32470000
2
Properties=species:S:1:pos:R:3:forces:R:3 energy=-5.880764636975535 pbc="F F F"
Pa       0.00000000       0.00000000       0.00000000       0.00000000       0.00000000       1.21944547
Pa       0.00000000       0.00000000       4.09292929       0.00000000       0.00000000      -1.21944547
2
Properties=species:S:1:pos:R:3:forces:R:3 energy=-5.811142225489737 pbc="F F F"
Pa       0.00000000       0.00000000       0.00000000       0.00000000       0.00000000       1.11780465
Pa       0.00000000       0.00000000       4.15252525       0.00000000       0.00000000      -1.11780465
2
Properties=species:S:1:pos:R:3:forces:R:3 energy=-5.747423155607771 pbc="F F F"
Pa       0.00000000       0.00000000       0.00000000       0.00000000       0.00000000       1.02163839
Pa       0.00000000       0.00000000       4.21212121       0.00000000       0.00000000      -1.02163839
2
Properties=species:S:1:pos:R:3:forces:R:3 energy=-5.689226130649003 pbc="F F F"
Pa       0.00000000       0.00000000       0.00000000       0.00000000       0.00000000       0.93272787
Pa       0.00000000       0.00000000       4.27171717       0.00000000       0.00000000      -0.93272787
2
Properties=species:S:1:pos:R:3:forces:R:3 energy=-5.636077537593443 pbc="F F F"
Pa       0.00000000       0.00000000       0.00000000       0.00000000       0.00000000       0.85244441
Pa       0.00000000       0.00000000       4.33131313       0.00000000       0.00000000      -0.85244441
2
Properties=species:S:1:pos:R:3:forces:R:3 energy=-5.587436369326845 pbc="F F F"
Pa       0.00000000       0.00000000       0.00000000       0.00000000       0.00000000       0.78148520
Pa       0.00000000       0.00000000       4.39090909       0.00000000       0.00000000      -0.78148520
2
Properties=species:S:1:pos:R:3:forces:R:3 energy=-5.542745615347849 pbc="F F F"
Pa       0.00000000       0.00000000       0.00000000       0.00000000       0.00000000       0.71979523
Pa       0.00000000       0.00000000       4.45050505       0.00000000       0.00000000      -0.71979523
2
Properties=species:S:1:pos:R:3:forces:R:3 energy=-5.5014735168537126 pbc="F F F"
Pa       0.00000000       0.00000000       0.00000000       0.00000000       0.00000000       0.66659486
Pa       0.00000000       0.00000000       4.51010101       0.00000000       0.00000000      -0.66659486
2
Properties=species:S:1:pos:R:3:forces:R:3 energy=-5.463149152129129 pbc="F F F"
Pa       0.00000000       0.00000000       0.00000000       0.00000000       0.00000000       0.62058491
Pa       0.00000000       0.00000000       4.56969697       0.00000000       0.00000000      -0.62058491
2
Properties=species:S:1:pos:R:3:forces:R:3 energy=-5.427393194878846 pbc="F F F"
Pa       0.00000000       0.00000000       0.00000000       0.00000000       0.00000000       0.58016229
Pa       0.00000000       0.00000000       4.62929293       0.00000000       0.00000000      -0.58016229
2
Properties=species:S:1:pos:R:3:forces:R:3 energy=-5.393921646561545 pbc="F F F"
Pa       0.00000000       0.00000000       0.00000000       0.00000000       0.00000000       0.54368967
Pa       0.00000000       0.00000000       4.68888889       0.00000000       0.00000000      -0.54368967
2
Properties=species:S:1:pos:R:3:forces:R:3 energy=-5.362541652561381 pbc="F F F"
Pa       0.00000000       0.00000000       0.00000000       0.00000000       0.00000000       0.50966293
Pa       0.00000000       0.00000000       4.74848485       0.00000000       0.00000000      -0.50966293
2
Properties=species:S:1:pos:R:3:forces:R:3 energy=-5.333149054645738 pbc="F F F"
Pa       0.00000000       0.00000000       0.00000000       0.00000000       0.00000000       0.47689584
Pa       0.00000000       0.00000000       4.80808081       0.00000000       0.00000000      -0.47689584
2
Properties=species:S:1:pos:R:3:forces:R:3 energy=-5.305689912875242 pbc="F F F"
Pa       0.00000000       0.00000000       0.00000000       0.00000000       0.00000000       0.44463110
Pa       0.00000000       0.00000000       4.86767677       0.00000000       0.00000000      -0.44463110
2
Properties=species:S:1:pos:R:3:forces:R:3 energy=-5.280144229783934 pbc="F F F"
Pa       0.00000000       0.00000000       0.00000000       0.00000000       0.00000000       0.41273105
Pa       0.00000000       0.00000000       4.92727273       0.00000000       0.00000000      -0.41273105
2
Properties=species:S:1:pos:R:3:forces:R:3 energy=-5.256475888813305 pbc="F F F"
Pa       0.00000000       0.00000000       0.00000000       0.00000000       0.00000000       0.38183919
Pa       0.00000000       0.00000000       4.98686869       0.00000000       0.00000000      -0.38183919
2
Properties=species:S:1:pos:R:3:forces:R:3 energy=-5.234585021281627 pbc="F F F"
Pa       0.00000000       0.00000000       0.00000000       0.00000000       0.00000000       0.35347369
Pa       0.00000000       0.00000000       5.04646465       0.00000000       0.00000000      -0.35347369
2
Properties=species:S:1:pos:R:3:forces:R:3 energy=-5.214254003407842 pbc="F F F"
Pa       0.00000000       0.00000000       0.00000000       0.00000000       0.00000000       0.32975212
Pa       0.00000000       0.00000000       5.10606061       0.00000000       0.00000000      -0.32975212
2
Properties=species:S:1:pos:R:3:forces:R:3 energy=-5.1951460828208775 pbc="F F F"
Pa       0.00000000       0.00000000       0.00000000       0.00000000       0.00000000       0.31259984
Pa       0.00000000       0.00000000       5.16565657       0.00000000       0.00000000      -0.31259984
2
Properties=species:S:1:pos:R:3:forces:R:3 energy=-5.176854461108724 pbc="F F F"
Pa       0.00000000       0.00000000       0.00000000       0.00000000       0.00000000       0.30228281
Pa       0.00000000       0.00000000       5.22525253       0.00000000       0.00000000      -0.30228281
2
Properties=species:S:1:pos:R:3:forces:R:3 energy=-5.1590408950403654 pbc="F F F"
Pa       0.00000000       0.00000000       0.00000000       0.00000000       0.00000000       0.29572055
Pa       0.00000000       0.00000000       5.28484848       0.00000000       0.00000000      -0.29572055
2
Properties=species:S:1:pos:R:3:forces:R:3 energy=-5.141654628177834 pbc="F F F"
Pa       0.00000000       0.00000000       0.00000000       0.00000000       0.00000000       0.28685725
Pa       0.00000000       0.00000000       5.34444444       0.00000000       0.00000000      -0.28685725
2
Properties=species:S:1:pos:R:3:forces:R:3 energy=-5.124948909114356 pbc="F F F"
Pa       0.00000000       0.00000000       0.00000000       0.00000000       0.00000000       0.27347311
Pa       0.00000000       0.00000000       5.40404040       0.00000000       0.00000000      -0.27347311
2
Properties=species:S:1:pos:R:3:forces:R:3 energy=-5.108960278961945 pbc="F F F"
Pa       0.00000000       0.00000000       0.00000000       0.00000000       0.00000000       0.26472995
Pa       0.00000000       0.00000000       5.46363636       0.00000000       0.00000000      -0.26472995
2
Properties=species:S:1:pos:R:3:forces:R:3 energy=-5.09323376742846 pbc="F F F"
Pa       0.00000000       0.00000000       0.00000000       0.00000000       0.00000000       0.26326400
Pa       0.00000000       0.00000000       5.52323232       0.00000000       0.00000000      -0.26326400
2
Properties=species:S:1:pos:R:3:forces:R:3 energy=-5.077809481569219 pbc="F F F"
Pa       0.00000000       0.00000000       0.00000000       0.00000000       0.00000000       0.25136343
Pa       0.00000000       0.00000000       5.58282828       0.00000000       0.00000000      -0.25136343
2
Properties=species:S:1:pos:R:3:forces:R:3 energy=-5.063549456316107 pbc="F F F"
Pa       0.00000000       0.00000000       0.00000000       0.00000000       0.00000000       0.22649278
Pa       0.00000000       0.00000000       5.64242424       0.00000000       0.00000000      -0.22649278
2
Properties=species:S:1:pos:R:3:forces:R:3 energy=-5.050610433758869 pbc="F F F"
Pa       0.00000000       0.00000000       0.00000000       0.00000000       0.00000000       0.21169159
Pa       0.00000000       0.00000000       5.70202020       0.00000000       0.00000000      -0.21169159
2
Properties=species:S:1:pos:R:3:forces:R:3 energy=-5.037730394379204 pbc="F F F"
Pa       0.00000000       0.00000000       0.00000000       0.00000000       0.00000000       0.22410698
Pa       0.00000000       0.00000000       5.76161616       0.00000000       0.00000000      -0.22410698
2
Properties=species:S:1:pos:R:3:forces:R:3 energy=-5.024223485329571 pbc="F F F"
Pa       0.00000000       0.00000000       0.00000000       0.00000000       0.00000000       0.21992078
Pa       0.00000000       0.00000000       5.82121212       0.00000000       0.00000000      -0.21992078
2
Properties=species:S:1:pos:R:3:forces:R:3 energy=-5.0128625517396905 pbc="F F F"
Pa       0.00000000       0.00000000       0.00000000       0.00000000       0.00000000       0.15344653
Pa       0.00000000       0.00000000       5.88080808       0.00000000       0.00000000      -0.15344653
2
Properties=species:S:1:pos:R:3:forces:R:3 energy=-5.006257419115808 pbc="F F F"
Pa       0.00000000       0.00000000       0.00000000       0.00000000       0.00000000       0.06981130
Pa       0.00000000       0.00000000       5.94040404       0.00000000       0.00000000      -0.06981130
2
Properties=species:S:1:pos:R:3:forces:R:3 energy=-5.003518460576929 pbc="F F F"
Pa       0.00000000       0.00000000       0.00000000       0.00000000       0.00000000       0.03397926
Pa       0.00000000       0.00000000       6.00000000       0.00000000       0.00000000      -0.03397926
