2
Properties=species:S:1:pos:R:3:forces:R:3 energy=456345.6077501629 pbc="F F F"
Pm       0.00000000       0.00000000       0.00000000       0.00000000       0.00000000 -226410.29687500
Pm       0.00000000       0.00000000       0.18000000       0.00000000       0.00000000  226410.29687500
2
Properties=species:S:1:pos:R:3:forces:R:3 energy=446209.1702501629 pbc="F F F"
Pm       0.00000000       0.00000000       0.00000000       0.00000000       0.00000000 -152000.84375000
Pm       0.00000000       0.00000000       0.23878788       0.00000000       0.00000000  152000.84375000
2
Properties=species:S:1:pos:R:3:forces:R:3 energy=435943.9202501629 pbc="F F F"
Pm       0.00000000       0.00000000       0.00000000       0.00000000       0.00000000 -212712.68750000
Pm       0.00000000       0.00000000       0.29757576       0.00000000       0.00000000  212712.68750000
2
Properties=species:S:1:pos:R:3:forces:R:3 energy=419609.4515001629 pbc="F F F"
Pm       0.00000000       0.00000000       0.00000000       0.00000000       0.00000000 -355441.46875000
Pm       0.00000000       0.00000000       0.35636364       0.00000000       0.00000000  355441.46875000
2
Properties=species:S:1:pos:R:3:forces:R:3 energy=392847.2952501756 pbc="F F F"
Pm       0.00000000       0.00000000       0.00000000       0.00000000       0.00000000 -564463.12500000
Pm       0.00000000       0.00000000       0.41515152       0.00000000       0.00000000  564463.12500000
2
Properties=species:S:1:pos:R:3:forces:R:3 energy=352413.7015001882 pbc="F F F"
Pm       0.00000000       0.00000000       0.00000000       0.00000000       0.00000000 -814541.43750000
Pm       0.00000000       0.00000000       0.47393939       0.00000000       0.00000000  814541.43750000
2
Properties=species:S:1:pos:R:3:forces:R:3 energy=297249.7952501882 pbc="F F F"
Pm       0.00000000       0.00000000       0.00000000       0.00000000       0.00000000 -1054837.75000000
Pm       0.00000000       0.00000000       0.53272727       0.00000000       0.00000000 1054837.75000000
2
Properties=species:S:1:pos:R:3:forces:R:3 energy=230067.02962522625 pbc="F F F"
Pm       0.00000000       0.00000000       0.00000000       0.00000000       0.00000000 -1209685.12500000
Pm       0.00000000       0.00000000       0.59151515       0.00000000       0.00000000 1209685.12500000
2
Properties=species:S:1:pos:R:3:forces:R:3 energy=158223.34212527692 pbc="F F F"
Pm       0.00000000       0.00000000       0.00000000       0.00000000       0.00000000 -1202634.50000000
Pm       0.00000000       0.00000000       0.65030303       0.00000000       0.00000000 1202634.50000000
2
Properties=species:S:1:pos:R:3:forces:R:3 energy=92503.91243785295 pbc="F F F"
Pm       0.00000000       0.00000000       0.00000000       0.00000000       0.00000000 -1002779.06250000
Pm       0.00000000       0.00000000       0.70909091       0.00000000       0.00000000 1002779.06250000
2
Properties=species:S:1:pos:R:3:forces:R:3 energy=43065.428062967 pbc="F F F"
Pm       0.00000000       0.00000000       0.00000000       0.00000000       0.00000000 -665779.00000000
Pm       0.00000000       0.00000000       0.76787879       0.00000000       0.00000000  665779.00000000
2
Properties=species:S:1:pos:R:3:forces:R:3 energy=15004.466149081898 pbc="F F F"
Pm       0.00000000       0.00000000       0.00000000       0.00000000       0.00000000 -326597.31250000
Pm       0.00000000       0.00000000       0.82666667       0.00000000       0.00000000  326597.31250000
2
Properties=species:S:1:pos:R:3:forces:R:3 energy=2901.6285028382786 pbc="F F F"
Pm       0.00000000       0.00000000       0.00000000       0.00000000       0.00000000  -53276.50781250
Pm       0.00000000       0.00000000       0.88545455       0.00000000       0.00000000   53276.50781250
2
Properties=species:S:1:pos:R:3:forces:R:3 energy=671.4520505436844 pbc="F F F"
Pm       0.00000000       0.00000000       0.00000000       0.00000000       0.00000000  -11529.64550781
Pm       0.00000000       0.00000000       0.94424242       0.00000000       0.00000000   11529.64550781
2
Properties=species:S:1:pos:R:3:forces:R:3 energy=296.725793675632 pbc="F F F"
Pm       0.00000000       0.00000000       0.00000000       0.00000000       0.00000000   -2846.66845703
Pm       0.00000000       0.00000000       1.00303030       0.00000000       0.00000000    2846.66845703
2
Properties=species:S:1:pos:R:3:forces:R:3 energy=203.1618142066574 pbc="F F F"
Pm       0.00000000       0.00000000       0.00000000       0.00000000       0.00000000    -902.79241943
Pm       0.00000000       0.00000000       1.06181818       0.00000000       0.00000000     902.79241943
2
Properties=species:S:1:pos:R:3:forces:R:3 energy=169.980067606439 pbc="F F F"
Pm       0.00000000       0.00000000       0.00000000       0.00000000       0.00000000    -343.64694214
Pm       0.00000000       0.00000000       1.12060606       0.00000000       0.00000000     343.64694214
2
Properties=species:S:1:pos:R:3:forces:R:3 energy=147.3138699657011 pbc="F F F"
Pm       0.00000000       0.00000000       0.00000000       0.00000000       0.00000000    -429.25933838
Pm       0.00000000       0.00000000       1.17939394       0.00000000       0.00000000     429.25933838
2
Properties=species:S:1:pos:R:3:forces:R:3 energy=124.19659234482232 pbc="F F F"
Pm       0.00000000       0.00000000       0.00000000       0.00000000       0.00000000    -362.49020386
Pm       0.00000000       0.00000000       1.23818182       0.00000000       0.00000000     362.49020386
2
Properties=species:S:1:pos:R:3:forces:R:3 energy=104.06164542634784 pbc="F F F"
Pm       0.00000000       0.00000000       0.00000000       0.00000000       0.00000000    -326.82431030
Pm       0.00000000       0.00000000       1.29696970       0.00000000       0.00000000     326.82431030
2
Properties=species:S:1:pos:R:3:forces:R:3 energy=85.56260139416747 pbc="F F F"
Pm       0.00000000       0.00000000       0.00000000       0.00000000       0.00000000    -301.93051147
Pm       0.00000000       0.00000000       1.35575758       0.00000000       0.00000000     301.93051147
2
Properties=species:S:1:pos:R:3:forces:R:3 energy=68.75208028373358 pbc="F F F"
Pm       0.00000000       0.00000000       0.00000000       0.00000000       0.00000000    -267.94808960
Pm       0.00000000       0.00000000       1.41454545       0.00000000       0.00000000     267.94808960
2
Properties=species:S:1:pos:R:3:forces:R:3 energy=54.27678019446333 pbc="F F F"
Pm       0.00000000       0.00000000       0.00000000       0.00000000       0.00000000    -223.31831360
Pm       0.00000000       0.00000000       1.47333333       0.00000000       0.00000000     223.31831360
2
Properties=species:S:1:pos:R:3:forces:R:3 energy=42.47528998034051 pbc="F F F"
Pm       0.00000000       0.00000000       0.00000000       0.00000000       0.00000000    -179.67083740
Pm       0.00000000       0.00000000       1.53212121       0.00000000       0.00000000     179.67083740
2
Properties=species:S:1:pos:R:3:forces:R:3 energy=32.93194893526629 pbc="F F F"
Pm       0.00000000       0.00000000       0.00000000       0.00000000       0.00000000    -146.48605347
Pm       0.00000000       0.00000000       1.59090909       0.00000000       0.00000000     146.48605347
2
Properties=species:S:1:pos:R:3:forces:R:3 energy=25.16345419191292 pbc="F F F"
Pm       0.00000000       0.00000000       0.00000000       0.00000000       0.00000000    -118.14699554
Pm       0.00000000       0.00000000       1.64969697       0.00000000       0.00000000     118.14699554
2
Properties=species:S:1:pos:R:3:forces:R:3 energy=18.979704266129424 pbc="F F F"
Pm       0.00000000       0.00000000       0.00000000       0.00000000       0.00000000     -93.04876709
Pm       0.00000000       0.00000000       1.70848485       0.00000000       0.00000000      93.04876709
2
Properties=species:S:1:pos:R:3:forces:R:3 energy=14.112280158265794 pbc="F F F"
Pm       0.00000000       0.00000000       0.00000000       0.00000000       0.00000000     -73.44116974
Pm       0.00000000       0.00000000       1.76727273       0.00000000       0.00000000      73.44116974
2
Properties=species:S:1:pos:R:3:forces:R:3 energy=10.25783452149106 pbc="F F F"
Pm       0.00000000       0.00000000       0.00000000       0.00000000       0.00000000     -58.28267288
Pm       0.00000000       0.00000000       1.82606061       0.00000000       0.00000000      58.28267288
2
Properties=species:S:1:pos:R:3:forces:R:3 energy=7.200705142501646 pbc="F F F"
Pm       0.00000000       0.00000000       0.00000000       0.00000000       0.00000000     -46.16264343
Pm       0.00000000       0.00000000       1.88484848       0.00000000       0.00000000      46.16264343
2
Properties=species:S:1:pos:R:3:forces:R:3 energy=4.783163214557603 pbc="F F F"
Pm       0.00000000       0.00000000       0.00000000       0.00000000       0.00000000     -36.44816589
Pm       0.00000000       0.00000000       1.94363636       0.00000000       0.00000000      36.44816589
2
Properties=species:S:1:pos:R:3:forces:R:3 energy=2.8765710633564976 pbc="F F F"
Pm       0.00000000       0.00000000       0.00000000       0.00000000       0.00000000     -28.70812988
Pm       0.00000000       0.00000000       2.00242424       0.00000000       0.00000000      28.70812988
2
Properties=species:S:1:pos:R:3:forces:R:3 energy=1.37753858844844 pbc="F F F"
Pm       0.00000000       0.00000000       0.00000000       0.00000000       0.00000000     -22.51332664
Pm       0.00000000       0.00000000       2.06121212       0.00000000       0.00000000      22.51332664
2
Properties=species:S:1:pos:R:3:forces:R:3 energy=0.2068549766913646 pbc="F F F"
Pm       0.00000000       0.00000000       0.00000000       0.00000000       0.00000000     -17.47992134
Pm       0.00000000       0.00000000       2.12000000       0.00000000       0.00000000      17.47992134
2
Properties=species:S:1:pos:R:3:forces:R:3 energy=-0.6946201767827325 pbc="F F F"
Pm       0.00000000       0.00000000       0.00000000       0.00000000       0.00000000     -13.31537628
Pm       0.00000000       0.00000000       2.17878788       0.00000000       0.00000000      13.31537628
2
Properties=species:S:1:pos:R:3:forces:R:3 energy=-1.3723217899898943 pbc="F F F"
Pm       0.00000000       0.00000000       0.00000000       0.00000000       0.00000000      -9.84923458
Pm       0.00000000       0.00000000       2.23757576       0.00000000       0.00000000       9.84923458
2
Properties=species:S:1:pos:R:3:forces:R:3 energy=-1.8650282534269373 pbc="F F F"
Pm       0.00000000       0.00000000       0.00000000       0.00000000       0.00000000      -7.01562500
Pm       0.00000000       0.00000000       2.29636364       0.00000000       0.00000000       7.01562500
2
Properties=species:S:1:pos:R:3:forces:R:3 energy=-2.208954464605092 pbc="F F F"
Pm       0.00000000       0.00000000       0.00000000       0.00000000       0.00000000      -4.78192568
Pm       0.00000000       0.00000000       2.35515152       0.00000000       0.00000000       4.78192568
2
Properties=species:S:1:pos:R:3:forces:R:3 energy=-2.4381982072347244 pbc="F F F"
Pm       0.00000000       0.00000000       0.00000000       0.00000000       0.00000000      -3.10563540
Pm       0.00000000       0.00000000       2.41393939       0.00000000       0.00000000       3.10563540
2
Properties=species:S:1:pos:R:3:forces:R:3 energy=-2.583877195178278 pbc="F F F"
Pm       0.00000000       0.00000000       0.00000000       0.00000000       0.00000000      -1.92719424
Pm       0.00000000       0.00000000       2.47272727       0.00000000       0.00000000       1.92719424
2
Properties=species:S:1:pos:R:3:forces:R:3 energy=-2.6728815725777046 pbc="F F F"
Pm       0.00000000       0.00000000       0.00000000       0.00000000       0.00000000      -1.16079593
Pm       0.00000000       0.00000000       2.53151515       0.00000000       0.00000000       1.16079593
2
Properties=species:S:1:pos:R:3:forces:R:3 energy=-2.726293769378888 pbc="F F F"
Pm       0.00000000       0.00000000       0.00000000       0.00000000       0.00000000      -0.69734693
Pm       0.00000000       0.00000000       2.59030303       0.00000000       0.00000000       0.69734693
2
Properties=species:S:1:pos:R:3:forces:R:3 energy=-2.7586916038249303 pbc="F F F"
Pm       0.00000000       0.00000000       0.00000000       0.00000000       0.00000000      -0.42966884
Pm       0.00000000       0.00000000       2.64909091       0.00000000       0.00000000       0.42966884
2
Properties=species:S:1:pos:R:3:forces:R:3 energy=-2.7790055596388736 pbc="F F F"
Pm       0.00000000       0.00000000       0.00000000       0.00000000       0.00000000      -0.27494052
Pm       0.00000000       0.00000000       2.70787879       0.00000000       0.00000000       0.27494052
2
Properties=species:S:1:pos:R:3:forces:R:3 energy=-2.792153046349033 pbc="F F F"
Pm       0.00000000       0.00000000       0.00000000       0.00000000       0.00000000      -0.17891753
Pm       0.00000000       0.00000000       2.76666667       0.00000000       0.00000000       0.17891753
2
Properties=species:S:1:pos:R:3:forces:R:3 energy=-2.8005491437831656 pbc="F F F"
Pm       0.00000000       0.00000000       0.00000000       0.00000000       0.00000000      -0.10925149
Pm       0.00000000       0.00000000       2.82545455       0.00000000       0.00000000       0.10925149
2
Properties=species:S:1:pos:R:3:forces:R:3 energy=-2.805145655578775 pbc="F F F"
Pm       0.00000000       0.00000000       0.00000000       0.00000000       0.00000000      -0.04728543
Pm       0.00000000       0.00000000       2.88424242       0.00000000       0.00000000       0.04728543
2
Properties=species:S:1:pos:R:3:forces:R:3 energy=-2.806044585529714 pbc="F F F"
Pm       0.00000000       0.00000000       0.00000000       0.00000000       0.00000000       0.01785942
Pm       0.00000000       0.00000000       2.94303030       0.00000000       0.00000000      -0.01785942
2
Properties=species:S:1:pos:R:3:forces:R:3 energy=-2.8028542462443444 pbc="F F F"
Pm       0.00000000       0.00000000       0.00000000       0.00000000       0.00000000       0.09267512
Pm       0.00000000       0.00000000       3.00181818       0.00000000       0.00000000      -0.09267512
2
Properties=species:S:1:pos:R:3:forces:R:3 energy=-2.7948874990263666 pbc="F F F"
Pm       0.00000000       0.00000000       0.00000000       0.00000000       0.00000000       0.18070343
Pm       0.00000000       0.00000000       3.06060606       0.00000000       0.00000000      -0.18070343
2
Properties=species:S:1:pos:R:3:forces:R:3 energy=-2.7813320964459916 pbc="F F F"
Pm       0.00000000       0.00000000       0.00000000       0.00000000       0.00000000       0.28275165
Pm       0.00000000       0.00000000       3.11939394       0.00000000       0.00000000      -0.28275165
2
Properties=species:S:1:pos:R:3:forces:R:3 energy=-2.7614035973481643 pbc="F F F"
Pm       0.00000000       0.00000000       0.00000000       0.00000000       0.00000000       0.39695057
Pm       0.00000000       0.00000000       3.17818182       0.00000000       0.00000000      -0.39695057
2
Properties=species:S:1:pos:R:3:forces:R:3 energy=-2.7344984315803487 pbc="F F F"
Pm       0.00000000       0.00000000       0.00000000       0.00000000       0.00000000       0.51933903
Pm       0.00000000       0.00000000       3.23696970       0.00000000       0.00000000      -0.51933903
2
Properties=species:S:1:pos:R:3:forces:R:3 energy=-2.7002791904874015 pbc="F F F"
Pm       0.00000000       0.00000000       0.00000000       0.00000000       0.00000000       0.64487886
Pm       0.00000000       0.00000000       3.29575758       0.00000000       0.00000000      -0.64487886
2
Properties=species:S:1:pos:R:3:forces:R:3 energy=-2.658720453963914 pbc="F F F"
Pm       0.00000000       0.00000000       0.00000000       0.00000000       0.00000000       0.76817203
Pm       0.00000000       0.00000000       3.35454545       0.00000000       0.00000000      -0.76817203
2
Properties=species:S:1:pos:R:3:forces:R:3 energy=-2.6101123263831316 pbc="F F F"
Pm       0.00000000       0.00000000       0.00000000       0.00000000       0.00000000       0.88374269
Pm       0.00000000       0.00000000       3.41333333       0.00000000       0.00000000      -0.88374269
2
Properties=species:S:1:pos:R:3:forces:R:3 energy=-2.555069516181956 pbc="F F F"
Pm       0.00000000       0.00000000       0.00000000       0.00000000       0.00000000       0.98624468
Pm       0.00000000       0.00000000       3.47212121       0.00000000       0.00000000      -0.98624468
2
Properties=species:S:1:pos:R:3:forces:R:3 energy=-2.494501914668986 pbc="F F F"
Pm       0.00000000       0.00000000       0.00000000       0.00000000       0.00000000       1.07106125
Pm       0.00000000       0.00000000       3.53090909       0.00000000       0.00000000      -1.07106125
2
Properties=species:S:1:pos:R:3:forces:R:3 energy=-2.429547252615422 pbc="F F F"
Pm       0.00000000       0.00000000       0.00000000       0.00000000       0.00000000       1.13511932
Pm       0.00000000       0.00000000       3.58969697       0.00000000       0.00000000      -1.13511932
2
Properties=species:S:1:pos:R:3:forces:R:3 energy=-2.361465820613411 pbc="F F F"
Pm       0.00000000       0.00000000       0.00000000       0.00000000       0.00000000       1.17745733
Pm       0.00000000       0.00000000       3.64848485       0.00000000       0.00000000      -1.17745733
2
Properties=species:S:1:pos:R:3:forces:R:3 energy=-2.29151271239561 pbc="F F F"
Pm       0.00000000       0.00000000       0.00000000       0.00000000       0.00000000       1.19913721
Pm       0.00000000       0.00000000       3.70727273       0.00000000       0.00000000      -1.19913721
2
Properties=species:S:1:pos:R:3:forces:R:3 energy=-2.220832961010151 pbc="F F F"
Pm       0.00000000       0.00000000       0.00000000       0.00000000       0.00000000       1.20262504
Pm       0.00000000       0.00000000       3.76606061       0.00000000       0.00000000      -1.20262504
2
Properties=species:S:1:pos:R:3:forces:R:3 energy=-2.1504083184564435 pbc="F F F"
Pm       0.00000000       0.00000000       0.00000000       0.00000000       0.00000000       1.19105494
Pm       0.00000000       0.00000000       3.82484848       0.00000000       0.00000000      -1.19105494
2
Properties=species:S:1:pos:R:3:forces:R:3 energy=-2.0810244627951624 pbc="F F F"
Pm       0.00000000       0.00000000       0.00000000       0.00000000       0.00000000       1.16771019
Pm       0.00000000       0.00000000       3.88363636       0.00000000       0.00000000      -1.16771019
2
Properties=species:S:1:pos:R:3:forces:R:3 energy=-2.013280917861859 pbc="F F F"
Pm       0.00000000       0.00000000       0.00000000       0.00000000       0.00000000       1.13580871
Pm       0.00000000       0.00000000       3.94242424       0.00000000       0.00000000      -1.13580871
2
Properties=species:S:1:pos:R:3:forces:R:3 energy=-1.947589671104737 pbc="F F F"
Pm       0.00000000       0.00000000       0.00000000       0.00000000       0.00000000       1.09840631
Pm       0.00000000       0.00000000       4.00121212       0.00000000       0.00000000      -1.09840631
2
Properties=species:S:1:pos:R:3:forces:R:3 energy=-1.8841892552880102 pbc="F F F"
Pm       0.00000000       0.00000000       0.00000000       0.00000000       0.00000000       1.05824721
Pm       0.00000000       0.00000000       4.06000000       0.00000000       0.00000000      -1.05824721
2
Properties=species:S:1:pos:R:3:forces:R:3 energy=-1.8231749896375848 pbc="F F F"
Pm       0.00000000       0.00000000       0.00000000       0.00000000       0.00000000       1.01759791
Pm       0.00000000       0.00000000       4.11878788       0.00000000       0.00000000      -1.01759791
2
Properties=species:S:1:pos:R:3:forces:R:3 energy=-1.764521284649493 pbc="F F F"
Pm       0.00000000       0.00000000       0.00000000       0.00000000       0.00000000       0.97809607
Pm       0.00000000       0.00000000       4.17757576       0.00000000       0.00000000      -0.97809607
2
Properties=species:S:1:pos:R:3:forces:R:3 energy=-1.7081312026440765 pbc="F F F"
Pm       0.00000000       0.00000000       0.00000000       0.00000000       0.00000000       0.94073582
Pm       0.00000000       0.00000000       4.23636364       0.00000000       0.00000000      -0.94073582
2
Properties=species:S:1:pos:R:3:forces:R:3 energy=-1.6538619178687965 pbc="F F F"
Pm       0.00000000       0.00000000       0.00000000       0.00000000       0.00000000       0.90594059
Pm       0.00000000       0.00000000       4.29515152       0.00000000       0.00000000      -0.90594059
2
Properties=species:S:1:pos:R:3:forces:R:3 energy=-1.601563794138533 pbc="F F F"
Pm       0.00000000       0.00000000       0.00000000       0.00000000       0.00000000       0.87374556
Pm       0.00000000       0.00000000       4.35393939       0.00000000       0.00000000      -0.87374556
2
Properties=species:S:1:pos:R:3:forces:R:3 energy=-1.5510854779888625 pbc="F F F"
Pm       0.00000000       0.00000000       0.00000000       0.00000000       0.00000000       0.84391671
Pm       0.00000000       0.00000000       4.41272727       0.00000000       0.00000000      -0.84391671
2
Properties=species:S:1:pos:R:3:forces:R:3 energy=-1.5022996248759268 pbc="F F F"
Pm       0.00000000       0.00000000       0.00000000       0.00000000       0.00000000       0.81609923
Pm       0.00000000       0.00000000       4.47151515       0.00000000       0.00000000      -0.81609923
2
Properties=species:S:1:pos:R:3:forces:R:3 energy=-1.4550997743923288 pbc="F F F"
Pm       0.00000000       0.00000000       0.00000000       0.00000000       0.00000000       0.78988069
Pm       0.00000000       0.00000000       4.53030303       0.00000000       0.00000000      -0.78988069
2
Properties=species:S:1:pos:R:3:forces:R:3 energy=-1.409406693702055 pbc="F F F"
Pm       0.00000000       0.00000000       0.00000000       0.00000000       0.00000000       0.76480168
Pm       0.00000000       0.00000000       4.58909091       0.00000000       0.00000000      -0.76480168
2
Properties=species:S:1:pos:R:3:forces:R:3 energy=-1.365165693915567 pbc="F F F"
Pm       0.00000000       0.00000000       0.00000000       0.00000000       0.00000000       0.74039978
Pm       0.00000000       0.00000000       4.64787879       0.00000000       0.00000000      -0.74039978
2
Properties=species:S:1:pos:R:3:forces:R:3 energy=-1.3223487430108392 pbc="F F F"
Pm       0.00000000       0.00000000       0.00000000       0.00000000       0.00000000       0.71622175
Pm       0.00000000       0.00000000       4.70666667       0.00000000       0.00000000      -0.71622175
2
Properties=species:S:1:pos:R:3:forces:R:3 energy=-1.2809577680155058 pbc="F F F"
Pm       0.00000000       0.00000000       0.00000000       0.00000000       0.00000000       0.69193494
Pm       0.00000000       0.00000000       4.76545455       0.00000000       0.00000000      -0.69193494
2
Properties=species:S:1:pos:R:3:forces:R:3 energy=-1.2409962705246576 pbc="F F F"
Pm       0.00000000       0.00000000       0.00000000       0.00000000       0.00000000       0.66746783
Pm       0.00000000       0.00000000       4.82424242       0.00000000       0.00000000      -0.66746783
2
Properties=species:S:1:pos:R:3:forces:R:3 energy=-1.202477006780529 pbc="F F F"
Pm       0.00000000       0.00000000       0.00000000       0.00000000       0.00000000       0.64323801
Pm       0.00000000       0.00000000       4.88303030       0.00000000       0.00000000      -0.64323801
2
Properties=species:S:1:pos:R:3:forces:R:3 energy=-1.1653434846035304 pbc="F F F"
Pm       0.00000000       0.00000000       0.00000000       0.00000000       0.00000000       0.62032735
Pm       0.00000000       0.00000000       4.94181818       0.00000000       0.00000000      -0.62032735
2
Properties=species:S:1:pos:R:3:forces:R:3 energy=-1.1294790866546955 pbc="F F F"
Pm       0.00000000       0.00000000       0.00000000       0.00000000       0.00000000       0.60052443
Pm       0.00000000       0.00000000       5.00060606       0.00000000       0.00000000      -0.60052443
2
Properties=species:S:1:pos:R:3:forces:R:3 energy=-1.0946317871854863 pbc="F F F"
Pm       0.00000000       0.00000000       0.00000000       0.00000000       0.00000000       0.58596718
Pm       0.00000000       0.00000000       5.05939394       0.00000000       0.00000000      -0.58596718
2
Properties=species:S:1:pos:R:3:forces:R:3 energy=-1.06044768294227 pbc="F F F"
Pm       0.00000000       0.00000000       0.00000000       0.00000000       0.00000000       0.57827717
Pm       0.00000000       0.00000000       5.11818182       0.00000000       0.00000000      -0.57827717
2
Properties=species:S:1:pos:R:3:forces:R:3 energy=-1.0265128393787515 pbc="F F F"
Pm       0.00000000       0.00000000       0.00000000       0.00000000       0.00000000       0.57709235
Pm       0.00000000       0.00000000       5.17696970       0.00000000       0.00000000      -0.57709235
2
Properties=species:S:1:pos:R:3:forces:R:3 energy=-0.9925476829933636 pbc="F F F"
Pm       0.00000000       0.00000000       0.00000000       0.00000000       0.00000000       0.57825583
Pm       0.00000000       0.00000000       5.23575758       0.00000000       0.00000000      -0.57825583
2
Properties=species:S:1:pos:R:3:forces:R:3 energy=-0.9586494084998191 pbc="F F F"
Pm       0.00000000       0.00000000       0.00000000       0.00000000       0.00000000       0.57300872
Pm       0.00000000       0.00000000       5.29454545       0.00000000       0.00000000      -0.57300872
2
Properties=species:S:1:pos:R:3:forces:R:3 energy=-0.9254792235268788 pbc="F F F"
Pm       0.00000000       0.00000000       0.00000000       0.00000000       0.00000000       0.55269581
Pm       0.00000000       0.00000000       5.35333333       0.00000000       0.00000000      -0.55269581
2
Properties=species:S:1:pos:R:3:forces:R:3 energy=-0.8938626971392291 pbc="F F F"
Pm       0.00000000       0.00000000       0.00000000       0.00000000       0.00000000       0.52324843
Pm       0.00000000       0.00000000       5.41212121       0.00000000       0.00000000      -0.52324843
2
Properties=species:S:1:pos:R:3:forces:R:3 energy=-0.8636811692975057 pbc="F F F"
Pm       0.00000000       0.00000000       0.00000000       0.00000000       0.00000000       0.50673836
Pm       0.00000000       0.00000000       5.47090909       0.00000000       0.00000000      -0.50673836
2
Properties=species:S:1:pos:R:3:forces:R:3 energy=-0.8341290134246352 pbc="F F F"
Pm       0.00000000       0.00000000       0.00000000       0.00000000       0.00000000       0.49635440
Pm       0.00000000       0.00000000       5.52969697       0.00000000       0.00000000      -0.49635440
2
Properties=species:S:1:pos:R:3:forces:R:3 energy=-0.8059146812980805 pbc="F F F"
Pm       0.00000000       0.00000000       0.00000000       0.00000000       0.00000000       0.45772454
Pm       0.00000000       0.00000000       5.58848485       0.00000000       0.00000000      -0.45772454
2
Properties=species:S:1:pos:R:3:forces:R:3 energy=-0.7807617387291856 pbc="F F F"
Pm       0.00000000       0.00000000       0.00000000       0.00000000       0.00000000       0.39813879
Pm       0.00000000       0.00000000       5.64727273       0.00000000       0.00000000      -0.39813879
2
Properties=species:S:1:pos:R:3:forces:R:3 energy=-0.758618325814351 pbc="F F F"
Pm       0.00000000       0.00000000       0.00000000       0.00000000       0.00000000       0.36347571
Pm       0.00000000       0.00000000       5.70606061       0.00000000       0.00000000      -0.36347571
2
Properties=species:S:1:pos:R:3:forces:R:3 energy=-0.7368822395321543 pbc="F F F"
Pm       0.00000000       0.00000000       0.00000000       0.00000000       0.00000000       0.38017806
Pm       0.00000000       0.00000000       5.76484848       0.00000000       0.00000000      -0.38017806
2
Properties=species:S:1:pos:R:3:forces:R:3 energy=-0.7144584971777046 pbc="F F F"
Pm       0.00000000       0.00000000       0.00000000       0.00000000       0.00000000       0.36809349
Pm       0.00000000       0.00000000       5.82363636       0.00000000       0.00000000      -0.36809349
2
Properties=species:S:1:pos:R:3:forces:R:3 energy=-0.695888700635219 pbc="F F F"
Pm       0.00000000       0.00000000       0.00000000       0.00000000       0.00000000       0.25061229
Pm       0.00000000       0.00000000       5.88242424       0.00000000       0.00000000      -0.25061229
2
Properties=species:S:1:pos:R:3:forces:R:3 energy=-0.6855939340289667 pbc="F F F"
Pm       0.00000000       0.00000000       0.00000000       0.00000000       0.00000000       0.10440581
Pm       0.00000000       0.00000000       5.94121212       0.00000000       0.00000000      -0.10440581
2
Properties=species:S:1:pos:R:3:forces:R:3 energy=-0.6818779455801096 pbc="F F F"
Pm       0.00000000       0.00000000       0.00000000       0.00000000       0.00000000       0.04226183
Pm       0.00000000       0.00000000       6.00000000       0.00000000       0.00000000      -0.04226183
