2
Properties=species:S:1:pos:R:3:forces:R:3 energy=456346.3265001629 pbc="F F F"
Pm       0.00000000       0.00000000       0.00000000       0.00000000       0.00000000 -226410.35937500
Pm       0.00000000       0.00000000       0.18000000       0.00000000       0.00000000  226410.35937500
2
Properties=species:S:1:pos:R:3:forces:R:3 energy=446209.7952501629 pbc="F F F"
Pm       0.00000000       0.00000000       0.00000000       0.00000000       0.00000000 -152000.98437500
Pm       0.00000000       0.00000000       0.23878788       0.00000000       0.00000000  152000.98437500
2
Properties=species:S:1:pos:R:3:forces:R:3 energy=435945.1077501629 pbc="F F F"
Pm       0.00000000       0.00000000       0.00000000       0.00000000       0.00000000 -212713.28125000
Pm       0.00000000       0.00000000       0.29757576       0.00000000       0.00000000  212713.28125000
2
Properties=species:S:1:pos:R:3:forces:R:3 energy=419611.2015001629 pbc="F F F"
Pm       0.00000000       0.00000000       0.00000000       0.00000000       0.00000000 -355443.06250000
Pm       0.00000000       0.00000000       0.35636364       0.00000000       0.00000000  355443.06250000
2
Properties=species:S:1:pos:R:3:forces:R:3 energy=392850.0765001756 pbc="F F F"
Pm       0.00000000       0.00000000       0.00000000       0.00000000       0.00000000 -564466.62500000
Pm       0.00000000       0.00000000       0.41515152       0.00000000       0.00000000  564466.62500000
2
Properties=species:S:1:pos:R:3:forces:R:3 energy=352415.2952501882 pbc="F F F"
Pm       0.00000000       0.00000000       0.00000000       0.00000000       0.00000000 -814544.75000000
Pm       0.00000000       0.00000000       0.47393939       0.00000000       0.00000000  814544.75000000
2
Properties=species:S:1:pos:R:3:forces:R:3 energy=297250.5452501882 pbc="F F F"
Pm       0.00000000       0.00000000       0.00000000       0.00000000       0.00000000 -1054841.00000000
Pm       0.00000000       0.00000000       0.53272727       0.00000000       0.00000000 1054841.00000000
2
Properties=species:S:1:pos:R:3:forces:R:3 energy=230068.48275022625 pbc="F F F"
Pm       0.00000000       0.00000000       0.00000000       0.00000000       0.00000000 -1209691.37500000
Pm       0.00000000       0.00000000       0.59151515       0.00000000       0.00000000 1209691.37500000
2
Properties=species:S:1:pos:R:3:forces:R:3 energy=158222.21712527692 pbc="F F F"
Pm       0.00000000       0.00000000       0.00000000       0.00000000       0.00000000 -1202626.50000000
Pm       0.00000000       0.00000000       0.65030303       0.00000000       0.00000000 1202626.50000000
2
Properties=species:S:1:pos:R:3:forces:R:3 energy=92504.20931285295 pbc="F F F"
Pm       0.00000000       0.00000000       0.00000000       0.00000000       0.00000000 -1002782.37500000
Pm       0.00000000       0.00000000       0.70909091       0.00000000       0.00000000 1002782.37500000
2
Properties=species:S:1:pos:R:3:forces:R:3 energy=43065.084312967 pbc="F F F"
Pm       0.00000000       0.00000000       0.00000000       0.00000000       0.00000000 -665774.75000000
Pm       0.00000000       0.00000000       0.76787879       0.00000000       0.00000000  665774.75000000
2
Properties=species:S:1:pos:R:3:forces:R:3 energy=15004.510094394398 pbc="F F F"
Pm       0.00000000       0.00000000       0.00000000       0.00000000       0.00000000 -326598.25000000
Pm       0.00000000       0.00000000       0.82666667       0.00000000       0.00000000  326598.25000000
2
Properties=species:S:1:pos:R:3:forces:R:3 energy=2901.6282586976536 pbc="F F F"
Pm       0.00000000       0.00000000       0.00000000       0.00000000       0.00000000  -53276.46875000
Pm       0.00000000       0.00000000       0.88545455       0.00000000       0.00000000   53276.46875000
2
Properties=species:S:1:pos:R:3:forces:R:3 energy=671.4529660710282 pbc="F F F"
Pm       0.00000000       0.00000000       0.00000000       0.00000000       0.00000000  -11529.72656250
Pm       0.00000000       0.00000000       0.94424242       0.00000000       0.00000000   11529.72656250
2
Properties=species:S:1:pos:R:3:forces:R:3 energy=296.72561057016327 pbc="F F F"
Pm       0.00000000       0.00000000       0.00000000       0.00000000       0.00000000   -2846.66577148
Pm       0.00000000       0.00000000       1.00303030       0.00000000       0.00000000    2846.66577148
2
Properties=species:S:1:pos:R:3:forces:R:3 energy=203.16175317150115 pbc="F F F"
Pm       0.00000000       0.00000000       0.00000000       0.00000000       0.00000000    -902.79205322
Pm       0.00000000       0.00000000       1.06181818       0.00000000       0.00000000     902.79205322
2
Properties=species:S:1:pos:R:3:forces:R:3 energy=169.980067606439 pbc="F F F"
Pm       0.00000000       0.00000000       0.00000000       0.00000000       0.00000000    -343.64721680
Pm       0.00000000       0.00000000       1.12060606       0.00000000       0.00000000     343.64721680
2
Properties=species:S:1:pos:R:3:forces:R:3 energy=147.31376315417765 pbc="F F F"
Pm       0.00000000       0.00000000       0.00000000       0.00000000       0.00000000    -429.25875854
Pm       0.00000000       0.00000000       1.17939394       0.00000000       0.00000000     429.25875854
2
Properties=species:S:1:pos:R:3:forces:R:3 energy=124.19654656845513 pbc="F F F"
Pm       0.00000000       0.00000000       0.00000000       0.00000000       0.00000000    -362.49005127
Pm       0.00000000       0.00000000       1.23818182       0.00000000       0.00000000     362.49005127
2
Properties=species:S:1:pos:R:3:forces:R:3 energy=104.06165305574237 pbc="F F F"
Pm       0.00000000       0.00000000       0.00000000       0.00000000       0.00000000    -326.82406616
Pm       0.00000000       0.00000000       1.29696970       0.00000000       0.00000000     326.82406616
2
Properties=species:S:1:pos:R:3:forces:R:3 energy=85.56263954114013 pbc="F F F"
Pm       0.00000000       0.00000000       0.00000000       0.00000000       0.00000000    -301.93032837
Pm       0.00000000       0.00000000       1.35575758       0.00000000       0.00000000     301.93032837
2
Properties=species:S:1:pos:R:3:forces:R:3 energy=68.75211843070623 pbc="F F F"
Pm       0.00000000       0.00000000       0.00000000       0.00000000       0.00000000    -267.94839478
Pm       0.00000000       0.00000000       1.41454545       0.00000000       0.00000000     267.94839478
2
Properties=species:S:1:pos:R:3:forces:R:3 energy=54.27676875037153 pbc="F F F"
Pm       0.00000000       0.00000000       0.00000000       0.00000000       0.00000000    -223.31817627
Pm       0.00000000       0.00000000       1.47333333       0.00000000       0.00000000     223.31817627
2
Properties=species:S:1:pos:R:3:forces:R:3 energy=42.47527472155145 pbc="F F F"
Pm       0.00000000       0.00000000       0.00000000       0.00000000       0.00000000    -179.67076111
Pm       0.00000000       0.00000000       1.53212121       0.00000000       0.00000000     179.67076111
2
Properties=species:S:1:pos:R:3:forces:R:3 energy=32.93197563814715 pbc="F F F"
Pm       0.00000000       0.00000000       0.00000000       0.00000000       0.00000000    -146.48606873
Pm       0.00000000       0.00000000       1.59090909       0.00000000       0.00000000     146.48606873
2
Properties=species:S:1:pos:R:3:forces:R:3 energy=25.16346182130745 pbc="F F F"
Pm       0.00000000       0.00000000       0.00000000       0.00000000       0.00000000    -118.14699554
Pm       0.00000000       0.00000000       1.64969697       0.00000000       0.00000000     118.14699554
2
Properties=species:S:1:pos:R:3:forces:R:3 energy=18.979704266129424 pbc="F F F"
Pm       0.00000000       0.00000000       0.00000000       0.00000000       0.00000000     -93.04877472
Pm       0.00000000       0.00000000       1.70848485       0.00000000       0.00000000      93.04877472
2
Properties=species:S:1:pos:R:3:forces:R:3 energy=14.112285880311692 pbc="F F F"
Pm       0.00000000       0.00000000       0.00000000       0.00000000       0.00000000     -73.44120026
Pm       0.00000000       0.00000000       1.76727273       0.00000000       0.00000000      73.44120026
2
Properties=species:S:1:pos:R:3:forces:R:3 energy=10.257836428839692 pbc="F F F"
Pm       0.00000000       0.00000000       0.00000000       0.00000000       0.00000000     -58.28268433
Pm       0.00000000       0.00000000       1.82606061       0.00000000       0.00000000      58.28268433
2
Properties=species:S:1:pos:R:3:forces:R:3 energy=7.200707526687437 pbc="F F F"
Pm       0.00000000       0.00000000       0.00000000       0.00000000       0.00000000     -46.16262817
Pm       0.00000000       0.00000000       1.88484848       0.00000000       0.00000000      46.16262817
2
Properties=species:S:1:pos:R:3:forces:R:3 energy=4.783163691394761 pbc="F F F"
Pm       0.00000000       0.00000000       0.00000000       0.00000000       0.00000000     -36.44816971
Pm       0.00000000       0.00000000       1.94363636       0.00000000       0.00000000      36.44816971
2
Properties=species:S:1:pos:R:3:forces:R:3 energy=2.8765703481007603 pbc="F F F"
Pm       0.00000000       0.00000000       0.00000000       0.00000000       0.00000000     -28.70811272
Pm       0.00000000       0.00000000       2.00242424       0.00000000       0.00000000      28.70811272
2
Properties=species:S:1:pos:R:3:forces:R:3 energy=1.3775395421227563 pbc="F F F"
Pm       0.00000000       0.00000000       0.00000000       0.00000000       0.00000000     -22.51334190
Pm       0.00000000       0.00000000       2.06121212       0.00000000       0.00000000      22.51334190
2
Properties=species:S:1:pos:R:3:forces:R:3 energy=0.20685658601677354 pbc="F F F"
Pm       0.00000000       0.00000000       0.00000000       0.00000000       0.00000000     -17.47992706
Pm       0.00000000       0.00000000       2.12000000       0.00000000       0.00000000      17.47992706
2
Properties=species:S:1:pos:R:3:forces:R:3 energy=-0.694621368875628 pbc="F F F"
Pm       0.00000000       0.00000000       0.00000000       0.00000000       0.00000000     -13.31537342
Pm       0.00000000       0.00000000       2.17878788       0.00000000       0.00000000      13.31537342
2
Properties=species:S:1:pos:R:3:forces:R:3 energy=-1.3723211939434465 pbc="F F F"
Pm       0.00000000       0.00000000       0.00000000       0.00000000       0.00000000      -9.84923267
Pm       0.00000000       0.00000000       2.23757576       0.00000000       0.00000000       9.84923267
2
Properties=species:S:1:pos:R:3:forces:R:3 energy=-1.865029683938412 pbc="F F F"
Pm       0.00000000       0.00000000       0.00000000       0.00000000       0.00000000      -7.01562405
Pm       0.00000000       0.00000000       2.29636364       0.00000000       0.00000000       7.01562405
2
Properties=species:S:1:pos:R:3:forces:R:3 energy=-2.2089549414422502 pbc="F F F"
Pm       0.00000000       0.00000000       0.00000000       0.00000000       0.00000000      -4.78192186
Pm       0.00000000       0.00000000       2.35515152       0.00000000       0.00000000       4.78192186
2
Properties=species:S:1:pos:R:3:forces:R:3 energy=-2.438199876164778 pbc="F F F"
Pm       0.00000000       0.00000000       0.00000000       0.00000000       0.00000000      -3.10563970
Pm       0.00000000       0.00000000       2.41393939       0.00000000       0.00000000       3.10563970
2
Properties=species:S:1:pos:R:3:forces:R:3 energy=-2.5838776720154364 pbc="F F F"
Pm       0.00000000       0.00000000       0.00000000       0.00000000       0.00000000      -1.92719400
Pm       0.00000000       0.00000000       2.47272727       0.00000000       0.00000000       1.92719400
2
Properties=species:S:1:pos:R:3:forces:R:3 energy=-2.6728827646706 pbc="F F F"
Pm       0.00000000       0.00000000       0.00000000       0.00000000       0.00000000      -1.16079569
Pm       0.00000000       0.00000000       2.53151515       0.00000000       0.00000000       1.16079569
2
Properties=species:S:1:pos:R:3:forces:R:3 energy=-2.726294246216046 pbc="F F F"
Pm       0.00000000       0.00000000       0.00000000       0.00000000       0.00000000      -0.69734734
Pm       0.00000000       0.00000000       2.59030303       0.00000000       0.00000000       0.69734734
2
Properties=species:S:1:pos:R:3:forces:R:3 energy=-2.758693272754984 pbc="F F F"
Pm       0.00000000       0.00000000       0.00000000       0.00000000       0.00000000      -0.42966726
Pm       0.00000000       0.00000000       2.64909091       0.00000000       0.00000000       0.42966726
2
Properties=species:S:1:pos:R:3:forces:R:3 energy=-2.7790072285689273 pbc="F F F"
Pm       0.00000000       0.00000000       0.00000000       0.00000000       0.00000000      -0.27493647
Pm       0.00000000       0.00000000       2.70787879       0.00000000       0.00000000       0.27493647
2
Properties=species:S:1:pos:R:3:forces:R:3 energy=-2.7921547152790867 pbc="F F F"
Pm       0.00000000       0.00000000       0.00000000       0.00000000       0.00000000      -0.17891844
Pm       0.00000000       0.00000000       2.76666667       0.00000000       0.00000000       0.17891844
2
Properties=species:S:1:pos:R:3:forces:R:3 energy=-2.800549859038903 pbc="F F F"
Pm       0.00000000       0.00000000       0.00000000       0.00000000       0.00000000      -0.10925012
Pm       0.00000000       0.00000000       2.82545455       0.00000000       0.00000000       0.10925012
2
Properties=species:S:1:pos:R:3:forces:R:3 energy=-2.805146370834512 pbc="F F F"
Pm       0.00000000       0.00000000       0.00000000       0.00000000       0.00000000      -0.04728148
Pm       0.00000000       0.00000000       2.88424242       0.00000000       0.00000000       0.04728148
2
Properties=species:S:1:pos:R:3:forces:R:3 energy=-2.8060453007854513 pbc="F F F"
Pm       0.00000000       0.00000000       0.00000000       0.00000000       0.00000000       0.01786189
Pm       0.00000000       0.00000000       2.94303030       0.00000000       0.00000000      -0.01786189
2
Properties=species:S:1:pos:R:3:forces:R:3 energy=-2.8028549615000817 pbc="F F F"
Pm       0.00000000       0.00000000       0.00000000       0.00000000       0.00000000       0.09267655
Pm       0.00000000       0.00000000       3.00181818       0.00000000       0.00000000      -0.09267655
2
Properties=species:S:1:pos:R:3:forces:R:3 energy=-2.794888929537841 pbc="F F F"
Pm       0.00000000       0.00000000       0.00000000       0.00000000       0.00000000       0.18070479
Pm       0.00000000       0.00000000       3.06060606       0.00000000       0.00000000      -0.18070479
2
Properties=species:S:1:pos:R:3:forces:R:3 energy=-2.7813320964459916 pbc="F F F"
Pm       0.00000000       0.00000000       0.00000000       0.00000000       0.00000000       0.28275353
Pm       0.00000000       0.00000000       3.11939394       0.00000000       0.00000000      -0.28275353
2
Properties=species:S:1:pos:R:3:forces:R:3 energy=-2.7614040741853225 pbc="F F F"
Pm       0.00000000       0.00000000       0.00000000       0.00000000       0.00000000       0.39695129
Pm       0.00000000       0.00000000       3.17818182       0.00000000       0.00000000      -0.39695129
2
Properties=species:S:1:pos:R:3:forces:R:3 energy=-2.7344986699989278 pbc="F F F"
Pm       0.00000000       0.00000000       0.00000000       0.00000000       0.00000000       0.51934266
Pm       0.00000000       0.00000000       3.23696970       0.00000000       0.00000000      -0.51934266
2
Properties=species:S:1:pos:R:3:forces:R:3 energy=-2.700280382580297 pbc="F F F"
Pm       0.00000000       0.00000000       0.00000000       0.00000000       0.00000000       0.64488029
Pm       0.00000000       0.00000000       3.29575758       0.00000000       0.00000000      -0.64488029
2
Properties=species:S:1:pos:R:3:forces:R:3 energy=-2.6587209308010724 pbc="F F F"
Pm       0.00000000       0.00000000       0.00000000       0.00000000       0.00000000       0.76817465
Pm       0.00000000       0.00000000       3.35454545       0.00000000       0.00000000      -0.76817465
2
Properties=species:S:1:pos:R:3:forces:R:3 energy=-2.610113041638869 pbc="F F F"
Pm       0.00000000       0.00000000       0.00000000       0.00000000       0.00000000       0.88374400
Pm       0.00000000       0.00000000       3.41333333       0.00000000       0.00000000      -0.88374400
2
Properties=species:S:1:pos:R:3:forces:R:3 energy=-2.5550711851120096 pbc="F F F"
Pm       0.00000000       0.00000000       0.00000000       0.00000000       0.00000000       0.98624617
Pm       0.00000000       0.00000000       3.47212121       0.00000000       0.00000000      -0.98624617
2
Properties=species:S:1:pos:R:3:forces:R:3 energy=-2.4945028683433024 pbc="F F F"
Pm       0.00000000       0.00000000       0.00000000       0.00000000       0.00000000       1.07106173
Pm       0.00000000       0.00000000       3.53090909       0.00000000       0.00000000      -1.07106173
2
Properties=species:S:1:pos:R:3:forces:R:3 energy=-2.42954772945258 pbc="F F F"
Pm       0.00000000       0.00000000       0.00000000       0.00000000       0.00000000       1.13512206
Pm       0.00000000       0.00000000       3.58969697       0.00000000       0.00000000      -1.13512206
2
Properties=species:S:1:pos:R:3:forces:R:3 energy=-2.36146605903199 pbc="F F F"
Pm       0.00000000       0.00000000       0.00000000       0.00000000       0.00000000       1.17745781
Pm       0.00000000       0.00000000       3.64848485       0.00000000       0.00000000      -1.17745781
2
Properties=species:S:1:pos:R:3:forces:R:3 energy=-2.2915134276513474 pbc="F F F"
Pm       0.00000000       0.00000000       0.00000000       0.00000000       0.00000000       1.19913793
Pm       0.00000000       0.00000000       3.70727273       0.00000000       0.00000000      -1.19913793
2
Properties=species:S:1:pos:R:3:forces:R:3 energy=-2.2208334378473094 pbc="F F F"
Pm       0.00000000       0.00000000       0.00000000       0.00000000       0.00000000       1.20262551
Pm       0.00000000       0.00000000       3.76606061       0.00000000       0.00000000      -1.20262551
2
Properties=species:S:1:pos:R:3:forces:R:3 energy=-2.15040880796489 pbc="F F F"
Pm       0.00000000       0.00000000       0.00000000       0.00000000       0.00000000       1.19105613
Pm       0.00000000       0.00000000       3.82484848       0.00000000       0.00000000      -1.19105613
2
Properties=species:S:1:pos:R:3:forces:R:3 energy=-2.0810242243765833 pbc="F F F"
Pm       0.00000000       0.00000000       0.00000000       0.00000000       0.00000000       1.16771007
Pm       0.00000000       0.00000000       3.88363636       0.00000000       0.00000000      -1.16771007
2
Properties=species:S:1:pos:R:3:forces:R:3 energy=-2.0132818715361753 pbc="F F F"
Pm       0.00000000       0.00000000       0.00000000       0.00000000       0.00000000       1.13580871
Pm       0.00000000       0.00000000       3.94242424       0.00000000       0.00000000      -1.13580871
2
Properties=species:S:1:pos:R:3:forces:R:3 energy=-1.9475891942675787 pbc="F F F"
Pm       0.00000000       0.00000000       0.00000000       0.00000000       0.00000000       1.09840727
Pm       0.00000000       0.00000000       4.00121212       0.00000000       0.00000000      -1.09840727
2
Properties=species:S:1:pos:R:3:forces:R:3 energy=-1.8841894937065893 pbc="F F F"
Pm       0.00000000       0.00000000       0.00000000       0.00000000       0.00000000       1.05824637
Pm       0.00000000       0.00000000       4.06000000       0.00000000       0.00000000      -1.05824637
2
Properties=species:S:1:pos:R:3:forces:R:3 energy=-1.823174155172558 pbc="F F F"
Pm       0.00000000       0.00000000       0.00000000       0.00000000       0.00000000       1.01759708
Pm       0.00000000       0.00000000       4.11878788       0.00000000       0.00000000      -1.01759708
2
Properties=species:S:1:pos:R:3:forces:R:3 energy=-1.7645212973207816 pbc="F F F"
Pm       0.00000000       0.00000000       0.00000000       0.00000000       0.00000000       0.97809720
Pm       0.00000000       0.00000000       4.17757576       0.00000000       0.00000000      -0.97809720
2
Properties=species:S:1:pos:R:3:forces:R:3 energy=-1.708130976896786 pbc="F F F"
Pm       0.00000000       0.00000000       0.00000000       0.00000000       0.00000000       0.94073546
Pm       0.00000000       0.00000000       4.23636364       0.00000000       0.00000000      -0.94073546
2
Properties=species:S:1:pos:R:3:forces:R:3 energy=-1.6538619178687965 pbc="F F F"
Pm       0.00000000       0.00000000       0.00000000       0.00000000       0.00000000       0.90594214
Pm       0.00000000       0.00000000       4.29515152       0.00000000       0.00000000      -0.90594214
2
Properties=species:S:1:pos:R:3:forces:R:3 energy=-1.6015639133478226 pbc="F F F"
Pm       0.00000000       0.00000000       0.00000000       0.00000000       0.00000000       0.87374514
Pm       0.00000000       0.00000000       4.35393939       0.00000000       0.00000000      -0.87374514
2
Properties=species:S:1:pos:R:3:forces:R:3 energy=-1.5510856098694406 pbc="F F F"
Pm       0.00000000       0.00000000       0.00000000       0.00000000       0.00000000       0.84391600
Pm       0.00000000       0.00000000       4.41272727       0.00000000       0.00000000      -0.84391600
2
Properties=species:S:1:pos:R:3:forces:R:3 energy=-1.5022996248759268 pbc="F F F"
Pm       0.00000000       0.00000000       0.00000000       0.00000000       0.00000000       0.81609935
Pm       0.00000000       0.00000000       4.47151515       0.00000000       0.00000000      -0.81609935
2
Properties=species:S:1:pos:R:3:forces:R:3 energy=-1.4550995359737497 pbc="F F F"
Pm       0.00000000       0.00000000       0.00000000       0.00000000       0.00000000       0.78987896
Pm       0.00000000       0.00000000       4.53030303       0.00000000       0.00000000      -0.78987896
2
Properties=species:S:1:pos:R:3:forces:R:3 energy=-1.4094069574632115 pbc="F F F"
Pm       0.00000000       0.00000000       0.00000000       0.00000000       0.00000000       0.76480055
Pm       0.00000000       0.00000000       4.58909091       0.00000000       0.00000000      -0.76480055
2
Properties=species:S:1:pos:R:3:forces:R:3 energy=-1.365165693915567 pbc="F F F"
Pm       0.00000000       0.00000000       0.00000000       0.00000000       0.00000000       0.74039763
Pm       0.00000000       0.00000000       4.64787879       0.00000000       0.00000000      -0.74039763
2
Properties=species:S:1:pos:R:3:forces:R:3 energy=-1.3223487430108392 pbc="F F F"
Pm       0.00000000       0.00000000       0.00000000       0.00000000       0.00000000       0.71622086
Pm       0.00000000       0.00000000       4.70666667       0.00000000       0.00000000      -0.71622086
2
Properties=species:S:1:pos:R:3:forces:R:3 energy=-1.280957171969058 pbc="F F F"
Pm       0.00000000       0.00000000       0.00000000       0.00000000       0.00000000       0.69193399
Pm       0.00000000       0.00000000       4.76545455       0.00000000       0.00000000      -0.69193399
2
Properties=species:S:1:pos:R:3:forces:R:3 energy=-1.2409975818268426 pbc="F F F"
Pm       0.00000000       0.00000000       0.00000000       0.00000000       0.00000000       0.66746897
Pm       0.00000000       0.00000000       4.82424242       0.00000000       0.00000000      -0.66746897
2
Properties=species:S:1:pos:R:3:forces:R:3 energy=-1.2024768875712395 pbc="F F F"
Pm       0.00000000       0.00000000       0.00000000       0.00000000       0.00000000       0.64323908
Pm       0.00000000       0.00000000       4.88303030       0.00000000       0.00000000      -0.64323908
2
Properties=species:S:1:pos:R:3:forces:R:3 energy=-1.1653432461849513 pbc="F F F"
Pm       0.00000000       0.00000000       0.00000000       0.00000000       0.00000000       0.62032968
Pm       0.00000000       0.00000000       4.94181818       0.00000000       0.00000000      -0.62032968
2
Properties=species:S:1:pos:R:3:forces:R:3 energy=-1.1294770600967732 pbc="F F F"
Pm       0.00000000       0.00000000       0.00000000       0.00000000       0.00000000       0.60052514
Pm       0.00000000       0.00000000       5.00060606       0.00000000       0.00000000      -0.60052514
2
Properties=species:S:1:pos:R:3:forces:R:3 energy=-1.0946316679761967 pbc="F F F"
Pm       0.00000000       0.00000000       0.00000000       0.00000000       0.00000000       0.58596659
Pm       0.00000000       0.00000000       5.05939394       0.00000000       0.00000000      -0.58596659
2
Properties=species:S:1:pos:R:3:forces:R:3 energy=-1.0604452391518342 pbc="F F F"
Pm       0.00000000       0.00000000       0.00000000       0.00000000       0.00000000       0.57827592
Pm       0.00000000       0.00000000       5.11818182       0.00000000       0.00000000      -0.57827592
2
Properties=species:S:1:pos:R:3:forces:R:3 energy=-1.0265127924453952 pbc="F F F"
Pm       0.00000000       0.00000000       0.00000000       0.00000000       0.00000000       0.57708818
Pm       0.00000000       0.00000000       5.17696970       0.00000000       0.00000000      -0.57708818
2
Properties=species:S:1:pos:R:3:forces:R:3 energy=-0.9925478022026532 pbc="F F F"
Pm       0.00000000       0.00000000       0.00000000       0.00000000       0.00000000       0.57825887
Pm       0.00000000       0.00000000       5.23575758       0.00000000       0.00000000      -0.57825887
2
Properties=species:S:1:pos:R:3:forces:R:3 energy=-0.9586510774298728 pbc="F F F"
Pm       0.00000000       0.00000000       0.00000000       0.00000000       0.00000000       0.57300389
Pm       0.00000000       0.00000000       5.29454545       0.00000000       0.00000000      -0.57300389
2
Properties=species:S:1:pos:R:3:forces:R:3 energy=-0.925479355407457 pbc="F F F"
Pm       0.00000000       0.00000000       0.00000000       0.00000000       0.00000000       0.55269504
Pm       0.00000000       0.00000000       5.35333333       0.00000000       0.00000000      -0.55269504
2
Properties=species:S:1:pos:R:3:forces:R:3 energy=-0.8938587036280291 pbc="F F F"
Pm       0.00000000       0.00000000       0.00000000       0.00000000       0.00000000       0.52325457
Pm       0.00000000       0.00000000       5.41212121       0.00000000       0.00000000      -0.52325457
2
Properties=species:S:1:pos:R:3:forces:R:3 energy=-0.8636812289021505 pbc="F F F"
Pm       0.00000000       0.00000000       0.00000000       0.00000000       0.00000000       0.50673497
Pm       0.00000000       0.00000000       5.47090909       0.00000000       0.00000000      -0.50673497
2
Properties=species:S:1:pos:R:3:forces:R:3 energy=-0.8341289791625677 pbc="F F F"
Pm       0.00000000       0.00000000       0.00000000       0.00000000       0.00000000       0.49634346
Pm       0.00000000       0.00000000       5.52969697       0.00000000       0.00000000      -0.49634346
2
Properties=species:S:1:pos:R:3:forces:R:3 energy=-0.8059146812980805 pbc="F F F"
Pm       0.00000000       0.00000000       0.00000000       0.00000000       0.00000000       0.45774305
Pm       0.00000000       0.00000000       5.58848485       0.00000000       0.00000000      -0.45774305
2
Properties=species:S:1:pos:R:3:forces:R:3 energy=-0.7807476720330186 pbc="F F F"
Pm       0.00000000       0.00000000       0.00000000       0.00000000       0.00000000       0.39814422
Pm       0.00000000       0.00000000       5.64727273       0.00000000       0.00000000      -0.39814422
2
Properties=species:S:1:pos:R:3:forces:R:3 energy=-0.7586183511569281 pbc="F F F"
Pm       0.00000000       0.00000000       0.00000000       0.00000000       0.00000000       0.36346295
Pm       0.00000000       0.00000000       5.70606061       0.00000000       0.00000000      -0.36346295
2
Properties=species:S:1:pos:R:3:forces:R:3 energy=-0.7368822395321543 pbc="F F F"
Pm       0.00000000       0.00000000       0.00000000       0.00000000       0.00000000       0.38013893
Pm       0.00000000       0.00000000       5.76484848       0.00000000       0.00000000      -0.38013893
2
Properties=species:S:1:pos:R:3:forces:R:3 energy=-0.7144815641752327 pbc="F F F"
Pm       0.00000000       0.00000000       0.00000000       0.00000000       0.00000000       0.36787027
Pm       0.00000000       0.00000000       5.82363636       0.00000000       0.00000000      -0.36787027
2
Properties=species:S:1:pos:R:3:forces:R:3 energy=-0.6958887133065076 pbc="F F F"
Pm       0.00000000       0.00000000       0.00000000       0.00000000       0.00000000       0.25056785
Pm       0.00000000       0.00000000       5.88242424       0.00000000       0.00000000      -0.25056785
2
Properties=species:S:1:pos:R:3:forces:R:3 energy=-0.6855939340289667 pbc="F F F"
Pm       0.00000000       0.00000000       0.00000000       0.00000000       0.00000000       0.10441092
Pm       0.00000000       0.00000000       5.94121212       0.00000000       0.00000000      -0.10441092
2
Properties=species:S:1:pos:R:3:forces:R:3 energy=-0.6818779455801096 pbc="F F F"
Pm       0.00000000       0.00000000       0.00000000       0.00000000       0.00000000       0.04226183
Pm       0.00000000       0.00000000       6.00000000       0.00000000       0.00000000      -0.04226183
