2
Properties=species:S:1:pos:R:3:forces:R:3 energy=16501.51358453671 pbc="F F F"
Pt       0.00000000       0.00000000       0.00000000       0.00000000       0.00000000 -280527.37500000
Pt       0.00000000       0.00000000       0.18000000       0.00000000       0.00000000  280527.37500000
2
Properties=species:S:1:pos:R:3:forces:R:3 energy=6721.725986880461 pbc="F F F"
Pt       0.00000000       0.00000000       0.00000000       0.00000000       0.00000000  -92260.86718750
Pt       0.00000000       0.00000000       0.23878788       0.00000000       0.00000000   92260.86718750
2
Properties=species:S:1:pos:R:3:forces:R:3 energy=3249.3580669617545 pbc="F F F"
Pt       0.00000000       0.00000000       0.00000000       0.00000000       0.00000000  -35923.29687500
Pt       0.00000000       0.00000000       0.29757576       0.00000000       0.00000000   35923.29687500
2
Properties=species:S:1:pos:R:3:forces:R:3 energy=1821.9494976289848 pbc="F F F"
Pt       0.00000000       0.00000000       0.00000000       0.00000000       0.00000000  -15824.89355469
Pt       0.00000000       0.00000000       0.35636364       0.00000000       0.00000000   15824.89355469
2
Properties=species:S:1:pos:R:3:forces:R:3 energy=1162.058262283758 pbc="F F F"
Pt       0.00000000       0.00000000       0.00000000       0.00000000       0.00000000   -7728.93310547
Pt       0.00000000       0.00000000       0.41515152       0.00000000       0.00000000    7728.93310547
2
Properties=species:S:1:pos:R:3:forces:R:3 energy=838.4487041909605 pbc="F F F"
Pt       0.00000000       0.00000000       0.00000000       0.00000000       0.00000000   -3760.13623047
Pt       0.00000000       0.00000000       0.47393939       0.00000000       0.00000000    3760.13623047
2
Properties=species:S:1:pos:R:3:forces:R:3 energy=665.7234234545843 pbc="F F F"
Pt       0.00000000       0.00000000       0.00000000       0.00000000       0.00000000   -2297.85278320
Pt       0.00000000       0.00000000       0.53272727       0.00000000       0.00000000    2297.85278320
2
Properties=species:S:1:pos:R:3:forces:R:3 energy=553.2024884371723 pbc="F F F"
Pt       0.00000000       0.00000000       0.00000000       0.00000000       0.00000000   -1617.58044434
Pt       0.00000000       0.00000000       0.59151515       0.00000000       0.00000000    1617.58044434
2
Properties=species:S:1:pos:R:3:forces:R:3 energy=464.68201120877467 pbc="F F F"
Pt       0.00000000       0.00000000       0.00000000       0.00000000       0.00000000   -1397.52636719
Pt       0.00000000       0.00000000       0.65030303       0.00000000       0.00000000    1397.52636719
2
Properties=species:S:1:pos:R:3:forces:R:3 energy=387.8980147376172 pbc="F F F"
Pt       0.00000000       0.00000000       0.00000000       0.00000000       0.00000000   -1254.33728027
Pt       0.00000000       0.00000000       0.70909091       0.00000000       0.00000000    1254.33728027
2
Properties=species:S:1:pos:R:3:forces:R:3 energy=314.63397681323863 pbc="F F F"
Pt       0.00000000       0.00000000       0.00000000       0.00000000       0.00000000   -1227.36230469
Pt       0.00000000       0.00000000       0.76787879       0.00000000       0.00000000    1227.36230469
2
Properties=species:S:1:pos:R:3:forces:R:3 energy=246.56847107888342 pbc="F F F"
Pt       0.00000000       0.00000000       0.00000000       0.00000000       0.00000000   -1049.97204590
Pt       0.00000000       0.00000000       0.82666667       0.00000000       0.00000000    1049.97204590
2
Properties=species:S:1:pos:R:3:forces:R:3 energy=191.97876500010977 pbc="F F F"
Pt       0.00000000       0.00000000       0.00000000       0.00000000       0.00000000    -819.99731445
Pt       0.00000000       0.00000000       0.88545455       0.00000000       0.00000000     819.99731445
2
Properties=species:S:1:pos:R:3:forces:R:3 energy=149.00015831022003 pbc="F F F"
Pt       0.00000000       0.00000000       0.00000000       0.00000000       0.00000000    -645.51892090
Pt       0.00000000       0.00000000       0.94424242       0.00000000       0.00000000     645.51892090
2
Properties=species:S:1:pos:R:3:forces:R:3 energy=115.80525846593518 pbc="F F F"
Pt       0.00000000       0.00000000       0.00000000       0.00000000       0.00000000    -487.94772339
Pt       0.00000000       0.00000000       1.00303030       0.00000000       0.00000000     487.94772339
2
Properties=species:S:1:pos:R:3:forces:R:3 energy=90.94533505235825 pbc="F F F"
Pt       0.00000000       0.00000000       0.00000000       0.00000000       0.00000000    -363.45681763
Pt       0.00000000       0.00000000       1.06181818       0.00000000       0.00000000     363.45681763
2
Properties=species:S:1:pos:R:3:forces:R:3 energy=72.55656519266611 pbc="F F F"
Pt       0.00000000       0.00000000       0.00000000       0.00000000       0.00000000    -265.85363770
Pt       0.00000000       0.00000000       1.12060606       0.00000000       0.00000000     265.85363770
2
Properties=species:S:1:pos:R:3:forces:R:3 energy=59.209665823964485 pbc="F F F"
Pt       0.00000000       0.00000000       0.00000000       0.00000000       0.00000000    -192.97119141
Pt       0.00000000       0.00000000       1.17939394       0.00000000       0.00000000     192.97119141
2
Properties=species:S:1:pos:R:3:forces:R:3 energy=49.239674266397714 pbc="F F F"
Pt       0.00000000       0.00000000       0.00000000       0.00000000       0.00000000    -151.48231506
Pt       0.00000000       0.00000000       1.23818182       0.00000000       0.00000000     151.48231506
2
Properties=species:S:1:pos:R:3:forces:R:3 energy=40.93293323901788 pbc="F F F"
Pt       0.00000000       0.00000000       0.00000000       0.00000000       0.00000000    -133.51318359
Pt       0.00000000       0.00000000       1.29696970       0.00000000       0.00000000     133.51318359
2
Properties=species:S:1:pos:R:3:forces:R:3 energy=33.397223328248664 pbc="F F F"
Pt       0.00000000       0.00000000       0.00000000       0.00000000       0.00000000    -123.25106049
Pt       0.00000000       0.00000000       1.35575758       0.00000000       0.00000000     123.25106049
2
Properties=species:S:1:pos:R:3:forces:R:3 energy=26.45950619397605 pbc="F F F"
Pt       0.00000000       0.00000000       0.00000000       0.00000000       0.00000000    -112.20095825
Pt       0.00000000       0.00000000       1.41454545       0.00000000       0.00000000     112.20095825
2
Properties=species:S:1:pos:R:3:forces:R:3 energy=20.294807937700373 pbc="F F F"
Pt       0.00000000       0.00000000       0.00000000       0.00000000       0.00000000     -96.77616119
Pt       0.00000000       0.00000000       1.47333333       0.00000000       0.00000000      96.77616119
2
Properties=species:S:1:pos:R:3:forces:R:3 energy=15.132940408383488 pbc="F F F"
Pt       0.00000000       0.00000000       0.00000000       0.00000000       0.00000000     -78.81205750
Pt       0.00000000       0.00000000       1.53212121       0.00000000       0.00000000      78.81205750
2
Properties=species:S:1:pos:R:3:forces:R:3 energy=10.985746571273193 pbc="F F F"
Pt       0.00000000       0.00000000       0.00000000       0.00000000       0.00000000     -62.90241241
Pt       0.00000000       0.00000000       1.59090909       0.00000000       0.00000000      62.90241241
2
Properties=species:S:1:pos:R:3:forces:R:3 energy=7.656869871572748 pbc="F F F"
Pt       0.00000000       0.00000000       0.00000000       0.00000000       0.00000000     -50.98600006
Pt       0.00000000       0.00000000       1.64969697       0.00000000       0.00000000      50.98600006
2
Properties=species:S:1:pos:R:3:forces:R:3 energy=4.931002382819304 pbc="F F F"
Pt       0.00000000       0.00000000       0.00000000       0.00000000       0.00000000     -42.11967850
Pt       0.00000000       0.00000000       1.70848485       0.00000000       0.00000000      42.11967850
2
Properties=species:S:1:pos:R:3:forces:R:3 energy=2.6749732832313065 pbc="F F F"
Pt       0.00000000       0.00000000       0.00000000       0.00000000       0.00000000     -34.79715729
Pt       0.00000000       0.00000000       1.76727273       0.00000000       0.00000000      34.79715729
2
Properties=species:S:1:pos:R:3:forces:R:3 energy=0.8250265733986655 pbc="F F F"
Pt       0.00000000       0.00000000       0.00000000       0.00000000       0.00000000     -28.24681854
Pt       0.00000000       0.00000000       1.82606061       0.00000000       0.00000000      28.24681854
2
Properties=species:S:1:pos:R:3:forces:R:3 energy=-0.6591228052991462 pbc="F F F"
Pt       0.00000000       0.00000000       0.00000000       0.00000000       0.00000000     -22.36145210
Pt       0.00000000       0.00000000       1.88484848       0.00000000       0.00000000      22.36145210
2
Properties=species:S:1:pos:R:3:forces:R:3 energy=-1.8185414119069883 pbc="F F F"
Pt       0.00000000       0.00000000       0.00000000       0.00000000       0.00000000     -17.20847321
Pt       0.00000000       0.00000000       1.94363636       0.00000000       0.00000000      17.20847321
2
Properties=species:S:1:pos:R:3:forces:R:3 energy=-2.6971521003971266 pbc="F F F"
Pt       0.00000000       0.00000000       0.00000000       0.00000000       0.00000000     -12.80565739
Pt       0.00000000       0.00000000       2.00242424       0.00000000       0.00000000      12.80565739
2
Properties=species:S:1:pos:R:3:forces:R:3 energy=-3.3382522236002043 pbc="F F F"
Pt       0.00000000       0.00000000       0.00000000       0.00000000       0.00000000      -9.12080479
Pt       0.00000000       0.00000000       2.06121212       0.00000000       0.00000000       9.12080479
2
Properties=species:S:1:pos:R:3:forces:R:3 energy=-3.7826217441022387 pbc="F F F"
Pt       0.00000000       0.00000000       0.00000000       0.00000000       0.00000000      -6.10349751
Pt       0.00000000       0.00000000       2.12000000       0.00000000       0.00000000       6.10349751
2
Properties=species:S:1:pos:R:3:forces:R:3 energy=-4.067795510553232 pbc="F F F"
Pt       0.00000000       0.00000000       0.00000000       0.00000000       0.00000000      -3.69384766
Pt       0.00000000       0.00000000       2.17878788       0.00000000       0.00000000       3.69384766
2
Properties=species:S:1:pos:R:3:forces:R:3 energy=-4.227425787247341 pbc="F F F"
Pt       0.00000000       0.00000000       0.00000000       0.00000000       0.00000000      -1.81924808
Pt       0.00000000       0.00000000       2.23757576       0.00000000       0.00000000       1.81924808
2
Properties=species:S:1:pos:R:3:forces:R:3 energy=-4.2905049008572895 pbc="F F F"
Pt       0.00000000       0.00000000       0.00000000       0.00000000       0.00000000      -0.39419693
Pt       0.00000000       0.00000000       2.29636364       0.00000000       0.00000000       0.39419693
2
Properties=species:S:1:pos:R:3:forces:R:3 energy=-4.280834788950398 pbc="F F F"
Pt       0.00000000       0.00000000       0.00000000       0.00000000       0.00000000       0.67009443
Pt       0.00000000       0.00000000       2.35515152       0.00000000       0.00000000      -0.67009443
2
Properties=species:S:1:pos:R:3:forces:R:3 energy=-4.217235253961959 pbc="F F F"
Pt       0.00000000       0.00000000       0.00000000       0.00000000       0.00000000       1.45223975
Pt       0.00000000       0.00000000       2.41393939       0.00000000       0.00000000      -1.45223975
2
Properties=species:S:1:pos:R:3:forces:R:3 energy=-4.11441364748768 pbc="F F F"
Pt       0.00000000       0.00000000       0.00000000       0.00000000       0.00000000       2.01304531
Pt       0.00000000       0.00000000       2.47272727       0.00000000       0.00000000      -2.01304531
2
Properties=species:S:1:pos:R:3:forces:R:3 energy=-3.9840056963975896 pbc="F F F"
Pt       0.00000000       0.00000000       0.00000000       0.00000000       0.00000000       2.39718223
Pt       0.00000000       0.00000000       2.53151515       0.00000000       0.00000000      -2.39718223
2
Properties=species:S:1:pos:R:3:forces:R:3 energy=-3.8353391298955866 pbc="F F F"
Pt       0.00000000       0.00000000       0.00000000       0.00000000       0.00000000       2.63955235
Pt       0.00000000       0.00000000       2.59030303       0.00000000       0.00000000      -2.63955235
2
Properties=species:S:1:pos:R:3:forces:R:3 energy=-3.6758388690885218 pbc="F F F"
Pt       0.00000000       0.00000000       0.00000000       0.00000000       0.00000000       2.77050734
Pt       0.00000000       0.00000000       2.64909091       0.00000000       0.00000000      -2.77050734
2
Properties=species:S:1:pos:R:3:forces:R:3 energy=-3.5112566698952064 pbc="F F F"
Pt       0.00000000       0.00000000       0.00000000       0.00000000       0.00000000       2.81641078
Pt       0.00000000       0.00000000       2.70787879       0.00000000       0.00000000      -2.81641078
2
Properties=species:S:1:pos:R:3:forces:R:3 energy=-3.345967275314832 pbc="F F F"
Pt       0.00000000       0.00000000       0.00000000       0.00000000       0.00000000       2.79728079
Pt       0.00000000       0.00000000       2.76666667       0.00000000       0.00000000      -2.79728079
2
Properties=species:S:1:pos:R:3:forces:R:3 energy=-3.183351578804236 pbc="F F F"
Pt       0.00000000       0.00000000       0.00000000       0.00000000       0.00000000       2.72768092
Pt       0.00000000       0.00000000       2.82545455       0.00000000       0.00000000      -2.72768092
2
Properties=species:S:1:pos:R:3:forces:R:3 energy=-3.025997477481324 pbc="F F F"
Pt       0.00000000       0.00000000       0.00000000       0.00000000       0.00000000       2.62033415
Pt       0.00000000       0.00000000       2.88424242       0.00000000       0.00000000      -2.62033415
2
Properties=species:S:1:pos:R:3:forces:R:3 energy=-2.87576704045806 pbc="F F F"
Pt       0.00000000       0.00000000       0.00000000       0.00000000       0.00000000       2.48725700
Pt       0.00000000       0.00000000       2.94303030       0.00000000       0.00000000      -2.48725700
2
Properties=species:S:1:pos:R:3:forces:R:3 energy=-2.7338463752440965 pbc="F F F"
Pt       0.00000000       0.00000000       0.00000000       0.00000000       0.00000000       2.33935547
Pt       0.00000000       0.00000000       3.00181818       0.00000000       0.00000000      -2.33935547
2
Properties=species:S:1:pos:R:3:forces:R:3 energy=-2.6008207135057173 pbc="F F F"
Pt       0.00000000       0.00000000       0.00000000       0.00000000       0.00000000       2.18604112
Pt       0.00000000       0.00000000       3.06060606       0.00000000       0.00000000      -2.18604112
2
Properties=species:S:1:pos:R:3:forces:R:3 energy=-2.47677941587704 pbc="F F F"
Pt       0.00000000       0.00000000       0.00000000       0.00000000       0.00000000       2.03475523
Pt       0.00000000       0.00000000       3.11939394       0.00000000       0.00000000      -2.03475523
2
Properties=species:S:1:pos:R:3:forces:R:3 energy=-2.3614430836216878 pbc="F F F"
Pt       0.00000000       0.00000000       0.00000000       0.00000000       0.00000000       1.89050555
Pt       0.00000000       0.00000000       3.17818182       0.00000000       0.00000000      -1.89050555
2
Properties=species:S:1:pos:R:3:forces:R:3 energy=-2.254313843549385 pbc="F F F"
Pt       0.00000000       0.00000000       0.00000000       0.00000000       0.00000000       1.75582051
Pt       0.00000000       0.00000000       3.23696970       0.00000000       0.00000000      -1.75582051
2
Properties=species:S:1:pos:R:3:forces:R:3 energy=-2.1548027474045552 pbc="F F F"
Pt       0.00000000       0.00000000       0.00000000       0.00000000       0.00000000       1.63122892
Pt       0.00000000       0.00000000       3.29575758       0.00000000       0.00000000      -1.63122892
2
Properties=species:S:1:pos:R:3:forces:R:3 energy=-2.062336226097927 pbc="F F F"
Pt       0.00000000       0.00000000       0.00000000       0.00000000       0.00000000       1.51601386
Pt       0.00000000       0.00000000       3.35454545       0.00000000       0.00000000      -1.51601386
2
Properties=species:S:1:pos:R:3:forces:R:3 energy=-1.976396902465118 pbc="F F F"
Pt       0.00000000       0.00000000       0.00000000       0.00000000       0.00000000       1.40896368
Pt       0.00000000       0.00000000       3.41333333       0.00000000       0.00000000      -1.40896368
2
Properties=species:S:1:pos:R:3:forces:R:3 energy=-1.8965395949897843 pbc="F F F"
Pt       0.00000000       0.00000000       0.00000000       0.00000000       0.00000000       1.30891562
Pt       0.00000000       0.00000000       3.47212121       0.00000000       0.00000000      -1.30891562
2
Properties=species:S:1:pos:R:3:forces:R:3 energy=-1.8223800214315142 pbc="F F F"
Pt       0.00000000       0.00000000       0.00000000       0.00000000       0.00000000       1.21502340
Pt       0.00000000       0.00000000       3.53090909       0.00000000       0.00000000      -1.21502340
2
Properties=species:S:1:pos:R:3:forces:R:3 energy=-1.75357086943685 pbc="F F F"
Pt       0.00000000       0.00000000       0.00000000       0.00000000       0.00000000       1.12680507
Pt       0.00000000       0.00000000       3.58969697       0.00000000       0.00000000      -1.12680507
2
Properties=species:S:1:pos:R:3:forces:R:3 energy=-1.6897873163624044 pbc="F F F"
Pt       0.00000000       0.00000000       0.00000000       0.00000000       0.00000000       1.04406500
Pt       0.00000000       0.00000000       3.64848485       0.00000000       0.00000000      -1.04406500
2
Properties=species:S:1:pos:R:3:forces:R:3 energy=-1.6307082100462236 pbc="F F F"
Pt       0.00000000       0.00000000       0.00000000       0.00000000       0.00000000       0.96675164
Pt       0.00000000       0.00000000       3.70727273       0.00000000       0.00000000      -0.96675164
2
Properties=species:S:1:pos:R:3:forces:R:3 energy=-1.5760144854089309 pbc="F F F"
Pt       0.00000000       0.00000000       0.00000000       0.00000000       0.00000000       0.89481896
Pt       0.00000000       0.00000000       3.76606061       0.00000000       0.00000000      -0.89481896
2
Properties=species:S:1:pos:R:3:forces:R:3 energy=-1.52539585284523 pbc="F F F"
Pt       0.00000000       0.00000000       0.00000000       0.00000000       0.00000000       0.82814413
Pt       0.00000000       0.00000000       3.82484848       0.00000000       0.00000000      -0.82814413
2
Properties=species:S:1:pos:R:3:forces:R:3 energy=-1.4785468611495287 pbc="F F F"
Pt       0.00000000       0.00000000       0.00000000       0.00000000       0.00000000       0.76647294
Pt       0.00000000       0.00000000       3.88363636       0.00000000       0.00000000      -0.76647294
2
Properties=species:S:1:pos:R:3:forces:R:3 energy=-1.4351860597012858 pbc="F F F"
Pt       0.00000000       0.00000000       0.00000000       0.00000000       0.00000000       0.70943719
Pt       0.00000000       0.00000000       3.94242424       0.00000000       0.00000000      -0.70943719
2
Properties=species:S:1:pos:R:3:forces:R:3 energy=-1.3950530709177973 pbc="F F F"
Pt       0.00000000       0.00000000       0.00000000       0.00000000       0.00000000       0.65658408
Pt       0.00000000       0.00000000       4.00121212       0.00000000       0.00000000      -0.65658408
2
Properties=species:S:1:pos:R:3:forces:R:3 energy=-1.3579157154691228 pbc="F F F"
Pt       0.00000000       0.00000000       0.00000000       0.00000000       0.00000000       0.60741752
Pt       0.00000000       0.00000000       4.06000000       0.00000000       0.00000000      -0.60741752
2
Properties=species:S:1:pos:R:3:forces:R:3 energy=-1.323573204418373 pbc="F F F"
Pt       0.00000000       0.00000000       0.00000000       0.00000000       0.00000000       0.56144267
Pt       0.00000000       0.00000000       4.11878788       0.00000000       0.00000000      -0.56144267
2
Properties=species:S:1:pos:R:3:forces:R:3 energy=-1.291850383497721 pbc="F F F"
Pt       0.00000000       0.00000000       0.00000000       0.00000000       0.00000000       0.51818514
Pt       0.00000000       0.00000000       4.17757576       0.00000000       0.00000000      -0.51818514
2
Properties=species:S:1:pos:R:3:forces:R:3 energy=-1.2626014369318914 pbc="F F F"
Pt       0.00000000       0.00000000       0.00000000       0.00000000       0.00000000       0.47722185
Pt       0.00000000       0.00000000       4.23636364       0.00000000       0.00000000      -0.47722185
2
Properties=species:S:1:pos:R:3:forces:R:3 energy=-1.2357023265677651 pbc="F F F"
Pt       0.00000000       0.00000000       0.00000000       0.00000000       0.00000000       0.43818828
Pt       0.00000000       0.00000000       4.29515152       0.00000000       0.00000000      -0.43818828
2
Properties=species:S:1:pos:R:3:forces:R:3 energy=-1.2110492199788603 pbc="F F F"
Pt       0.00000000       0.00000000       0.00000000       0.00000000       0.00000000       0.40080771
Pt       0.00000000       0.00000000       4.35393939       0.00000000       0.00000000      -0.40080771
2
Properties=species:S:1:pos:R:3:forces:R:3 energy=-1.188548773156305 pbc="F F F"
Pt       0.00000000       0.00000000       0.00000000       0.00000000       0.00000000       0.36490026
Pt       0.00000000       0.00000000       4.41272727       0.00000000       0.00000000      -0.36490026
2
Properties=species:S:1:pos:R:3:forces:R:3 energy=-1.1681176790142567 pbc="F F F"
Pt       0.00000000       0.00000000       0.00000000       0.00000000       0.00000000       0.33040875
Pt       0.00000000       0.00000000       4.47151515       0.00000000       0.00000000      -0.33040875
2
Properties=species:S:1:pos:R:3:forces:R:3 energy=-1.1496712938221108 pbc="F F F"
Pt       0.00000000       0.00000000       0.00000000       0.00000000       0.00000000       0.29740465
Pt       0.00000000       0.00000000       4.53030303       0.00000000       0.00000000      -0.29740465
2
Properties=species:S:1:pos:R:3:forces:R:3 energy=-1.1331178676412699 pbc="F F F"
Pt       0.00000000       0.00000000       0.00000000       0.00000000       0.00000000       0.26605788
Pt       0.00000000       0.00000000       4.58909091       0.00000000       0.00000000      -0.26605788
2
Properties=species:S:1:pos:R:3:forces:R:3 energy=-1.11835275575498 pbc="F F F"
Pt       0.00000000       0.00000000       0.00000000       0.00000000       0.00000000       0.23660535
Pt       0.00000000       0.00000000       4.64787879       0.00000000       0.00000000      -0.23660535
2
Properties=species:S:1:pos:R:3:forces:R:3 energy=-1.1052568646117922 pbc="F F F"
Pt       0.00000000       0.00000000       0.00000000       0.00000000       0.00000000       0.20927948
Pt       0.00000000       0.00000000       4.70666667       0.00000000       0.00000000      -0.20927948
2
Properties=species:S:1:pos:R:3:forces:R:3 energy=-1.0937011627716329 pbc="F F F"
Pt       0.00000000       0.00000000       0.00000000       0.00000000       0.00000000       0.18426226
Pt       0.00000000       0.00000000       4.76545455       0.00000000       0.00000000      -0.18426226
2
Properties=species:S:1:pos:R:3:forces:R:3 energy=-1.0835451902057085 pbc="F F F"
Pt       0.00000000       0.00000000       0.00000000       0.00000000       0.00000000       0.16162571
Pt       0.00000000       0.00000000       4.82424242       0.00000000       0.00000000      -0.16162571
2
Properties=species:S:1:pos:R:3:forces:R:3 energy=-1.0746518149058317 pbc="F F F"
Pt       0.00000000       0.00000000       0.00000000       0.00000000       0.00000000       0.14135650
Pt       0.00000000       0.00000000       4.88303030       0.00000000       0.00000000      -0.14135650
2
Properties=species:S:1:pos:R:3:forces:R:3 energy=-1.0668808435160788 pbc="F F F"
Pt       0.00000000       0.00000000       0.00000000       0.00000000       0.00000000       0.12337142
Pt       0.00000000       0.00000000       4.94181818       0.00000000       0.00000000      -0.12337142
2
Properties=species:S:1:pos:R:3:forces:R:3 energy=-1.0601014491932106 pbc="F F F"
Pt       0.00000000       0.00000000       0.00000000       0.00000000       0.00000000       0.10765415
Pt       0.00000000       0.00000000       5.00060606       0.00000000       0.00000000      -0.10765415
2
Properties=species:S:1:pos:R:3:forces:R:3 energy=-1.0541762165688082 pbc="F F F"
Pt       0.00000000       0.00000000       0.00000000       0.00000000       0.00000000       0.09432577
Pt       0.00000000       0.00000000       5.05939394       0.00000000       0.00000000      -0.09432577
2
Properties=species:S:1:pos:R:3:forces:R:3 energy=-1.0489587068783264 pbc="F F F"
Pt       0.00000000       0.00000000       0.00000000       0.00000000       0.00000000       0.08365967
Pt       0.00000000       0.00000000       5.11818182       0.00000000       0.00000000      -0.08365967
2
Properties=species:S:1:pos:R:3:forces:R:3 energy=-1.0442832645669013 pbc="F F F"
Pt       0.00000000       0.00000000       0.00000000       0.00000000       0.00000000       0.07589052
Pt       0.00000000       0.00000000       5.17696970       0.00000000       0.00000000      -0.07589052
2
Properties=species:S:1:pos:R:3:forces:R:3 energy=-1.0399815046012648 pbc="F F F"
Pt       0.00000000       0.00000000       0.00000000       0.00000000       0.00000000       0.07087903
Pt       0.00000000       0.00000000       5.23575758       0.00000000       0.00000000      -0.07087903
2
Properties=species:S:1:pos:R:3:forces:R:3 energy=-1.0359109021083914 pbc="F F F"
Pt       0.00000000       0.00000000       0.00000000       0.00000000       0.00000000       0.06783263
Pt       0.00000000       0.00000000       5.29454545       0.00000000       0.00000000      -0.06783263
2
Properties=species:S:1:pos:R:3:forces:R:3 energy=-1.0319930351747753 pbc="F F F"
Pt       0.00000000       0.00000000       0.00000000       0.00000000       0.00000000       0.06544232
Pt       0.00000000       0.00000000       5.35333333       0.00000000       0.00000000      -0.06544232
2
Properties=species:S:1:pos:R:3:forces:R:3 energy=-1.0282299125593202 pbc="F F F"
Pt       0.00000000       0.00000000       0.00000000       0.00000000       0.00000000       0.06238985
Pt       0.00000000       0.00000000       5.41212121       0.00000000       0.00000000      -0.06238985
2
Properties=species:S:1:pos:R:3:forces:R:3 energy=-1.0246899339236617 pbc="F F F"
Pt       0.00000000       0.00000000       0.00000000       0.00000000       0.00000000       0.05769880
Pt       0.00000000       0.00000000       5.47090909       0.00000000       0.00000000      -0.05769880
2
Properties=species:S:1:pos:R:3:forces:R:3 energy=-1.021483874496031 pbc="F F F"
Pt       0.00000000       0.00000000       0.00000000       0.00000000       0.00000000       0.05109709
Pt       0.00000000       0.00000000       5.52969697       0.00000000       0.00000000      -0.05109709
2
Properties=species:S:1:pos:R:3:forces:R:3 energy=-1.0187000550166287 pbc="F F F"
Pt       0.00000000       0.00000000       0.00000000       0.00000000       0.00000000       0.04355901
Pt       0.00000000       0.00000000       5.58848485       0.00000000       0.00000000      -0.04355901
2
Properties=species:S:1:pos:R:3:forces:R:3 energy=-1.0163756352655529 pbc="F F F"
Pt       0.00000000       0.00000000       0.00000000       0.00000000       0.00000000       0.03530237
Pt       0.00000000       0.00000000       5.64727273       0.00000000       0.00000000      -0.03530237
2
Properties=species:S:1:pos:R:3:forces:R:3 energy=-1.0145980912625179 pbc="F F F"
Pt       0.00000000       0.00000000       0.00000000       0.00000000       0.00000000       0.02470440
Pt       0.00000000       0.00000000       5.70606061       0.00000000       0.00000000      -0.02470440
2
Properties=species:S:1:pos:R:3:forces:R:3 energy=-1.0135014393754087 pbc="F F F"
Pt       0.00000000       0.00000000       0.00000000       0.00000000       0.00000000       0.01261816
Pt       0.00000000       0.00000000       5.76484848       0.00000000       0.00000000      -0.01261816
2
Properties=species:S:1:pos:R:3:forces:R:3 energy=-1.0130503617601507 pbc="F F F"
Pt       0.00000000       0.00000000       0.00000000       0.00000000       0.00000000       0.00375653
Pt       0.00000000       0.00000000       5.82363636       0.00000000       0.00000000      -0.00375653
2
Properties=species:S:1:pos:R:3:forces:R:3 energy=-1.0129057438257831 pbc="F F F"
Pt       0.00000000       0.00000000       0.00000000       0.00000000       0.00000000       0.00235486
Pt       0.00000000       0.00000000       5.88242424       0.00000000       0.00000000      -0.00235486
2
Properties=species:S:1:pos:R:3:forces:R:3 energy=-1.0126865077275127 pbc="F F F"
Pt       0.00000000       0.00000000       0.00000000       0.00000000       0.00000000       0.00529673
Pt       0.00000000       0.00000000       5.94121212       0.00000000       0.00000000      -0.00529673
2
Properties=species:S:1:pos:R:3:forces:R:3 energy=-1.012317802110647 pbc="F F F"
Pt       0.00000000       0.00000000       0.00000000       0.00000000       0.00000000       0.00667370
Pt       0.00000000       0.00000000       6.00000000       0.00000000       0.00000000      -0.00667370
