2
Properties=species:S:1:pos:R:3:forces:R:3 energy=115504.53378280363 pbc="F F F"
Pu       0.00000000       0.00000000       0.00000000       0.00000000       0.00000000 -2910082.75000000
Pu       0.00000000       0.00000000       0.10000000       0.00000000       0.00000000 2910082.75000000
2
Properties=species:S:1:pos:R:3:forces:R:3 energy=33085.37362655362 pbc="F F F"
Pu       0.00000000       0.00000000       0.00000000       0.00000000       0.00000000 -579201.00000000
Pu       0.00000000       0.00000000       0.15959596       0.00000000       0.00000000  579201.00000000
2
Properties=species:S:1:pos:R:3:forces:R:3 energy=13657.75643905362 pbc="F F F"
Pu       0.00000000       0.00000000       0.00000000       0.00000000       0.00000000 -169275.14062500
Pu       0.00000000       0.00000000       0.21919192       0.00000000       0.00000000  169275.14062500
2
Properties=species:S:1:pos:R:3:forces:R:3 energy=7424.504485928622 pbc="F F F"
Pu       0.00000000       0.00000000       0.00000000       0.00000000       0.00000000  -60871.44140625
Pu       0.00000000       0.00000000       0.27878788       0.00000000       0.00000000   60871.44140625
2
Properties=species:S:1:pos:R:3:forces:R:3 energy=5034.018646084872 pbc="F F F"
Pu       0.00000000       0.00000000       0.00000000       0.00000000       0.00000000  -25434.53125000
Pu       0.00000000       0.00000000       0.33838384       0.00000000       0.00000000   25434.53125000
2
Properties=species:S:1:pos:R:3:forces:R:3 energy=3959.5362242098713 pbc="F F F"
Pu       0.00000000       0.00000000       0.00000000       0.00000000       0.00000000  -12739.79785156
Pu       0.00000000       0.00000000       0.39797980       0.00000000       0.00000000   12739.79785156
2
Properties=species:S:1:pos:R:3:forces:R:3 energy=3355.484222263082 pbc="F F F"
Pu       0.00000000       0.00000000       0.00000000       0.00000000       0.00000000   -8364.39160156
Pu       0.00000000       0.00000000       0.45757576       0.00000000       0.00000000    8364.39160156
2
Properties=species:S:1:pos:R:3:forces:R:3 energy=2897.297210550668 pbc="F F F"
Pu       0.00000000       0.00000000       0.00000000       0.00000000       0.00000000   -7357.31689453
Pu       0.00000000       0.00000000       0.51717172       0.00000000       0.00000000    7357.31689453
2
Properties=species:S:1:pos:R:3:forces:R:3 energy=2453.0203550882534 pbc="F F F"
Pu       0.00000000       0.00000000       0.00000000       0.00000000       0.00000000   -7660.81347656
Pu       0.00000000       0.00000000       0.57676768       0.00000000       0.00000000    7660.81347656
2
Properties=species:S:1:pos:R:3:forces:R:3 energy=1980.0871275681977 pbc="F F F"
Pu       0.00000000       0.00000000       0.00000000       0.00000000       0.00000000   -8159.52050781
Pu       0.00000000       0.00000000       0.63636364       0.00000000       0.00000000    8159.52050781
2
Properties=species:S:1:pos:R:3:forces:R:3 energy=1532.9372252561259 pbc="F F F"
Pu       0.00000000       0.00000000       0.00000000       0.00000000       0.00000000   -7497.58593750
Pu       0.00000000       0.00000000       0.69595960       0.00000000       0.00000000    7497.58593750
2
Properties=species:S:1:pos:R:3:forces:R:3 energy=1099.801116902038 pbc="F F F"
Pu       0.00000000       0.00000000       0.00000000       0.00000000       0.00000000   -6876.32568359
Pu       0.00000000       0.00000000       0.75555556       0.00000000       0.00000000    6876.32568359
2
Properties=species:S:1:pos:R:3:forces:R:3 energy=727.28158572173 pbc="F F F"
Pu       0.00000000       0.00000000       0.00000000       0.00000000       0.00000000   -5602.82714844
Pu       0.00000000       0.00000000       0.81515152       0.00000000       0.00000000    5602.82714844
2
Properties=species:S:1:pos:R:3:forces:R:3 energy=447.75863659167914 pbc="F F F"
Pu       0.00000000       0.00000000       0.00000000       0.00000000       0.00000000   -3880.62646484
Pu       0.00000000       0.00000000       0.87474747       0.00000000       0.00000000    3880.62646484
2
Properties=species:S:1:pos:R:3:forces:R:3 energy=276.25167872958644 pbc="F F F"
Pu       0.00000000       0.00000000       0.00000000       0.00000000       0.00000000   -1997.39611816
Pu       0.00000000       0.00000000       0.93434343       0.00000000       0.00000000    1997.39611816
2
Properties=species:S:1:pos:R:3:forces:R:3 energy=178.0206456007961 pbc="F F F"
Pu       0.00000000       0.00000000       0.00000000       0.00000000       0.00000000   -1229.32897949
Pu       0.00000000       0.00000000       0.99393939       0.00000000       0.00000000    1229.32897949
2
Properties=species:S:1:pos:R:3:forces:R:3 energy=129.80453561839403 pbc="F F F"
Pu       0.00000000       0.00000000       0.00000000       0.00000000       0.00000000    -443.59936523
Pu       0.00000000       0.00000000       1.05353535       0.00000000       0.00000000     443.59936523
2
Properties=species:S:1:pos:R:3:forces:R:3 energy=113.05548201177633 pbc="F F F"
Pu       0.00000000       0.00000000       0.00000000       0.00000000       0.00000000    -249.21319580
Pu       0.00000000       0.00000000       1.11313131       0.00000000       0.00000000     249.21319580
2
Properties=species:S:1:pos:R:3:forces:R:3 energy=96.07431944937603 pbc="F F F"
Pu       0.00000000       0.00000000       0.00000000       0.00000000       0.00000000    -309.05807495
Pu       0.00000000       0.00000000       1.17272727       0.00000000       0.00000000     309.05807495
2
Properties=species:S:1:pos:R:3:forces:R:3 energy=78.29175015333703 pbc="F F F"
Pu       0.00000000       0.00000000       0.00000000       0.00000000       0.00000000    -279.88107300
Pu       0.00000000       0.00000000       1.23232323       0.00000000       0.00000000     279.88107300
2
Properties=species:S:1:pos:R:3:forces:R:3 energy=62.59710217093858 pbc="F F F"
Pu       0.00000000       0.00000000       0.00000000       0.00000000       0.00000000    -251.99052429
Pu       0.00000000       0.00000000       1.29191919       0.00000000       0.00000000     251.99052429
2
Properties=species:S:1:pos:R:3:forces:R:3 energy=48.15371324771403 pbc="F F F"
Pu       0.00000000       0.00000000       0.00000000       0.00000000       0.00000000    -225.59960938
Pu       0.00000000       0.00000000       1.35151515       0.00000000       0.00000000     225.59960938
2
Properties=species:S:1:pos:R:3:forces:R:3 energy=36.37250641949201 pbc="F F F"
Pu       0.00000000       0.00000000       0.00000000       0.00000000       0.00000000    -173.35057068
Pu       0.00000000       0.00000000       1.41111111       0.00000000       0.00000000     173.35057068
2
Properties=species:S:1:pos:R:3:forces:R:3 energy=26.62539947423834 pbc="F F F"
Pu       0.00000000       0.00000000       0.00000000       0.00000000       0.00000000    -158.69413757
Pu       0.00000000       0.00000000       1.47070707       0.00000000       0.00000000     158.69413757
2
Properties=species:S:1:pos:R:3:forces:R:3 energy=17.324379767325674 pbc="F F F"
Pu       0.00000000       0.00000000       0.00000000       0.00000000       0.00000000    -152.39404297
Pu       0.00000000       0.00000000       1.53030303       0.00000000       0.00000000     152.39404297
2
Properties=species:S:1:pos:R:3:forces:R:3 energy=8.602082485023244 pbc="F F F"
Pu       0.00000000       0.00000000       0.00000000       0.00000000       0.00000000    -139.45597839
Pu       0.00000000       0.00000000       1.58989899       0.00000000       0.00000000     139.45597839
2
Properties=species:S:1:pos:R:3:forces:R:3 energy=0.791137860829488 pbc="F F F"
Pu       0.00000000       0.00000000       0.00000000       0.00000000       0.00000000    -121.80044556
Pu       0.00000000       0.00000000       1.64949495       0.00000000       0.00000000     121.80044556
2
Properties=species:S:1:pos:R:3:forces:R:3 energy=-5.810344014652474 pbc="F F F"
Pu       0.00000000       0.00000000       0.00000000       0.00000000       0.00000000     -99.23828888
Pu       0.00000000       0.00000000       1.70909091       0.00000000       0.00000000      99.23828888
2
Properties=species:S:1:pos:R:3:forces:R:3 energy=-11.061033268396862 pbc="F F F"
Pu       0.00000000       0.00000000       0.00000000       0.00000000       0.00000000     -77.67092896
Pu       0.00000000       0.00000000       1.76868687       0.00000000       0.00000000      77.67092896
2
Properties=species:S:1:pos:R:3:forces:R:3 energy=-15.147122305209933 pbc="F F F"
Pu       0.00000000       0.00000000       0.00000000       0.00000000       0.00000000     -59.87257004
Pu       0.00000000       0.00000000       1.82828283       0.00000000       0.00000000      59.87257004
2
Properties=species:S:1:pos:R:3:forces:R:3 energy=-18.221146455923332 pbc="F F F"
Pu       0.00000000       0.00000000       0.00000000       0.00000000       0.00000000     -43.40888977
Pu       0.00000000       0.00000000       1.88787879       0.00000000       0.00000000      43.40888977
2
Properties=species:S:1:pos:R:3:forces:R:3 energy=-20.347072300573295 pbc="F F F"
Pu       0.00000000       0.00000000       0.00000000       0.00000000       0.00000000     -28.31447029
Pu       0.00000000       0.00000000       1.94747475       0.00000000       0.00000000      28.31447029
2
Properties=species:S:1:pos:R:3:forces:R:3 energy=-21.660809740290976 pbc="F F F"
Pu       0.00000000       0.00000000       0.00000000       0.00000000       0.00000000     -16.44096756
Pu       0.00000000       0.00000000       2.00707071       0.00000000       0.00000000      16.44096756
2
Properties=species:S:1:pos:R:3:forces:R:3 energy=-22.39045271763742 pbc="F F F"
Pu       0.00000000       0.00000000       0.00000000       0.00000000       0.00000000      -8.72198677
Pu       0.00000000       0.00000000       2.06666667       0.00000000       0.00000000       8.72198677
2
Properties=species:S:1:pos:R:3:forces:R:3 energy=-22.769590176892713 pbc="F F F"
Pu       0.00000000       0.00000000       0.00000000       0.00000000       0.00000000      -4.45986938
Pu       0.00000000       0.00000000       2.12626263       0.00000000       0.00000000       4.45986938
2
Properties=species:S:1:pos:R:3:forces:R:3 energy=-22.961323168626098 pbc="F F F"
Pu       0.00000000       0.00000000       0.00000000       0.00000000       0.00000000      -2.19068694
Pu       0.00000000       0.00000000       2.18585859       0.00000000       0.00000000       2.19068694
2
Properties=species:S:1:pos:R:3:forces:R:3 energy=-23.047593101046857 pbc="F F F"
Pu       0.00000000       0.00000000       0.00000000       0.00000000       0.00000000      -0.80155969
Pu       0.00000000       0.00000000       2.24545455       0.00000000       0.00000000       0.80155969
2
Properties=species:S:1:pos:R:3:forces:R:3 energy=-23.067500424722677 pbc="F F F"
Pu       0.00000000       0.00000000       0.00000000       0.00000000       0.00000000       0.03770635
Pu       0.00000000       0.00000000       2.30505051       0.00000000       0.00000000      -0.03770635
2
Properties=species:S:1:pos:R:3:forces:R:3 energy=-23.055543221326708 pbc="F F F"
Pu       0.00000000       0.00000000       0.00000000       0.00000000       0.00000000       0.26174194
Pu       0.00000000       0.00000000       2.36464646       0.00000000       0.00000000      -0.26174194
2
Properties=species:S:1:pos:R:3:forces:R:3 energy=-23.044737714699863 pbc="F F F"
Pu       0.00000000       0.00000000       0.00000000       0.00000000       0.00000000       0.08100277
Pu       0.00000000       0.00000000       2.42424242       0.00000000       0.00000000      -0.08100277
2
Properties=species:S:1:pos:R:3:forces:R:3 energy=-23.040521901514115 pbc="F F F"
Pu       0.00000000       0.00000000       0.00000000       0.00000000       0.00000000       0.16220312
Pu       0.00000000       0.00000000       2.48383838       0.00000000       0.00000000      -0.16220312
2
Properties=species:S:1:pos:R:3:forces:R:3 energy=-23.01108929847071 pbc="F F F"
Pu       0.00000000       0.00000000       0.00000000       0.00000000       0.00000000       0.92947978
Pu       0.00000000       0.00000000       2.54343434       0.00000000       0.00000000      -0.92947978
2
Properties=species:S:1:pos:R:3:forces:R:3 energy=-22.92413809450565 pbc="F F F"
Pu       0.00000000       0.00000000       0.00000000       0.00000000       0.00000000       1.96819699
Pu       0.00000000       0.00000000       2.60303030       0.00000000       0.00000000      -1.96819699
2
Properties=species:S:1:pos:R:3:forces:R:3 energy=-22.785504548032446 pbc="F F F"
Pu       0.00000000       0.00000000       0.00000000       0.00000000       0.00000000       2.57392597
Pu       0.00000000       0.00000000       2.66262626       0.00000000       0.00000000      -2.57392597
2
Properties=species:S:1:pos:R:3:forces:R:3 energy=-22.630675957104398 pbc="F F F"
Pu       0.00000000       0.00000000       0.00000000       0.00000000       0.00000000       2.52583933
Pu       0.00000000       0.00000000       2.72222222       0.00000000       0.00000000      -2.52583933
2
Properties=species:S:1:pos:R:3:forces:R:3 energy=-22.49247287996939 pbc="F F F"
Pu       0.00000000       0.00000000       0.00000000       0.00000000       0.00000000       2.07515621
Pu       0.00000000       0.00000000       2.78181818       0.00000000       0.00000000      -2.07515621
2
Properties=species:S:1:pos:R:3:forces:R:3 energy=-22.384692555835553 pbc="F F F"
Pu       0.00000000       0.00000000       0.00000000       0.00000000       0.00000000       1.55026925
Pu       0.00000000       0.00000000       2.84141414       0.00000000       0.00000000      -1.55026925
2
Properties=species:S:1:pos:R:3:forces:R:3 energy=-22.30539434757749 pbc="F F F"
Pu       0.00000000       0.00000000       0.00000000       0.00000000       0.00000000       1.13600755
Pu       0.00000000       0.00000000       2.90101010       0.00000000       0.00000000      -1.13600755
2
Properties=species:S:1:pos:R:3:forces:R:3 energy=-22.246279454763975 pbc="F F F"
Pu       0.00000000       0.00000000       0.00000000       0.00000000       0.00000000       0.87096733
Pu       0.00000000       0.00000000       2.96060606       0.00000000       0.00000000      -0.87096733
2
Properties=species:S:1:pos:R:3:forces:R:3 energy=-22.199315027434036 pbc="F F F"
Pu       0.00000000       0.00000000       0.00000000       0.00000000       0.00000000       0.71975875
Pu       0.00000000       0.00000000       3.02020202       0.00000000       0.00000000      -0.71975875
2
Properties=species:S:1:pos:R:3:forces:R:3 energy=-22.159235232029 pbc="F F F"
Pu       0.00000000       0.00000000       0.00000000       0.00000000       0.00000000       0.63223809
Pu       0.00000000       0.00000000       3.07979798       0.00000000       0.00000000      -0.63223809
2
Properties=species:S:1:pos:R:3:forces:R:3 energy=-22.12345078806926 pbc="F F F"
Pu       0.00000000       0.00000000       0.00000000       0.00000000       0.00000000       0.57083869
Pu       0.00000000       0.00000000       3.13939394       0.00000000       0.00000000      -0.57083869
2
Properties=species:S:1:pos:R:3:forces:R:3 energy=-22.091082486623407 pbc="F F F"
Pu       0.00000000       0.00000000       0.00000000       0.00000000       0.00000000       0.51552427
Pu       0.00000000       0.00000000       3.19898990       0.00000000       0.00000000      -0.51552427
2
Properties=species:S:1:pos:R:3:forces:R:3 energy=-22.06202786863894 pbc="F F F"
Pu       0.00000000       0.00000000       0.00000000       0.00000000       0.00000000       0.45921522
Pu       0.00000000       0.00000000       3.25858586       0.00000000       0.00000000      -0.45921522
2
Properties=species:S:1:pos:R:3:forces:R:3 energy=-22.036374634923146 pbc="F F F"
Pu       0.00000000       0.00000000       0.00000000       0.00000000       0.00000000       0.40165558
Pu       0.00000000       0.00000000       3.31818182       0.00000000       0.00000000      -0.40165558
2
Properties=species:S:1:pos:R:3:forces:R:3 energy=-22.014140745254053 pbc="F F F"
Pu       0.00000000       0.00000000       0.00000000       0.00000000       0.00000000       0.34480506
Pu       0.00000000       0.00000000       3.37777778       0.00000000       0.00000000      -0.34480506
2
Properties=species:S:1:pos:R:3:forces:R:3 energy=-21.995227926085438 pbc="F F F"
Pu       0.00000000       0.00000000       0.00000000       0.00000000       0.00000000       0.29037580
Pu       0.00000000       0.00000000       3.43737374       0.00000000       0.00000000      -0.29037580
2
Properties=species:S:1:pos:R:3:forces:R:3 energy=-21.979461690370933 pbc="F F F"
Pu       0.00000000       0.00000000       0.00000000       0.00000000       0.00000000       0.23936500
Pu       0.00000000       0.00000000       3.49696970       0.00000000       0.00000000      -0.23936500
2
Properties=species:S:1:pos:R:3:forces:R:3 energy=-21.96660076511946 pbc="F F F"
Pu       0.00000000       0.00000000       0.00000000       0.00000000       0.00000000       0.19324428
Pu       0.00000000       0.00000000       3.55656566       0.00000000       0.00000000      -0.19324428
2
Properties=species:S:1:pos:R:3:forces:R:3 energy=-21.95625687272248 pbc="F F F"
Pu       0.00000000       0.00000000       0.00000000       0.00000000       0.00000000       0.15582243
Pu       0.00000000       0.00000000       3.61616162       0.00000000       0.00000000      -0.15582243
2
Properties=species:S:1:pos:R:3:forces:R:3 energy=-21.947730892471327 pbc="F F F"
Pu       0.00000000       0.00000000       0.00000000       0.00000000       0.00000000       0.13339218
Pu       0.00000000       0.00000000       3.67575758       0.00000000       0.00000000      -0.13339218
2
Properties=species:S:1:pos:R:3:forces:R:3 energy=-21.939966505147115 pbc="F F F"
Pu       0.00000000       0.00000000       0.00000000       0.00000000       0.00000000       0.13042527
Pu       0.00000000       0.00000000       3.73535354       0.00000000       0.00000000      -0.13042527
2
Properties=species:S:1:pos:R:3:forces:R:3 energy=-21.93185852694441 pbc="F F F"
Pu       0.00000000       0.00000000       0.00000000       0.00000000       0.00000000       0.14361700
Pu       0.00000000       0.00000000       3.79494949       0.00000000       0.00000000      -0.14361700
2
Properties=species:S:1:pos:R:3:forces:R:3 energy=-21.92272487945664 pbc="F F F"
Pu       0.00000000       0.00000000       0.00000000       0.00000000       0.00000000       0.16309184
Pu       0.00000000       0.00000000       3.85454545       0.00000000       0.00000000      -0.16309184
2
Properties=species:S:1:pos:R:3:forces:R:3 energy=-21.912463764659506 pbc="F F F"
Pu       0.00000000       0.00000000       0.00000000       0.00000000       0.00000000       0.18058515
Pu       0.00000000       0.00000000       3.91414141       0.00000000       0.00000000      -0.18058515
2
Properties=species:S:1:pos:R:3:forces:R:3 energy=-21.901287431023963 pbc="F F F"
Pu       0.00000000       0.00000000       0.00000000       0.00000000       0.00000000       0.19379595
Pu       0.00000000       0.00000000       3.97373737       0.00000000       0.00000000      -0.19379595
2
Properties=species:S:1:pos:R:3:forces:R:3 energy=-21.889423611393973 pbc="F F F"
Pu       0.00000000       0.00000000       0.00000000       0.00000000       0.00000000       0.20404646
Pu       0.00000000       0.00000000       4.03333333       0.00000000       0.00000000      -0.20404646
2
Properties=species:S:1:pos:R:3:forces:R:3 energy=-21.876993081603647 pbc="F F F"
Pu       0.00000000       0.00000000       0.00000000       0.00000000       0.00000000       0.21296689
Pu       0.00000000       0.00000000       4.09292929       0.00000000       0.00000000      -0.21296689
2
Properties=species:S:1:pos:R:3:forces:R:3 energy=-21.864051460559065 pbc="F F F"
Pu       0.00000000       0.00000000       0.00000000       0.00000000       0.00000000       0.22124264
Pu       0.00000000       0.00000000       4.15252525       0.00000000       0.00000000      -0.22124264
2
Properties=species:S:1:pos:R:3:forces:R:3 energy=-21.850636371495593 pbc="F F F"
Pu       0.00000000       0.00000000       0.00000000       0.00000000       0.00000000       0.22878094
Pu       0.00000000       0.00000000       4.21212121       0.00000000       0.00000000      -0.22878094
2
Properties=species:S:1:pos:R:3:forces:R:3 energy=-21.83680487232502 pbc="F F F"
Pu       0.00000000       0.00000000       0.00000000       0.00000000       0.00000000       0.23516627
Pu       0.00000000       0.00000000       4.27171717       0.00000000       0.00000000      -0.23516627
2
Properties=species:S:1:pos:R:3:forces:R:3 energy=-21.822638058771627 pbc="F F F"
Pu       0.00000000       0.00000000       0.00000000       0.00000000       0.00000000       0.23996437
Pu       0.00000000       0.00000000       4.33131313       0.00000000       0.00000000      -0.23996437
2
Properties=species:S:1:pos:R:3:forces:R:3 energy=-21.808241347877715 pbc="F F F"
Pu       0.00000000       0.00000000       0.00000000       0.00000000       0.00000000       0.24284860
Pu       0.00000000       0.00000000       4.39090909       0.00000000       0.00000000      -0.24284860
2
Properties=species:S:1:pos:R:3:forces:R:3 energy=-21.793735029320036 pbc="F F F"
Pu       0.00000000       0.00000000       0.00000000       0.00000000       0.00000000       0.24362291
Pu       0.00000000       0.00000000       4.45050505       0.00000000       0.00000000      -0.24362291
2
Properties=species:S:1:pos:R:3:forces:R:3 energy=-21.779246439290596 pbc="F F F"
Pu       0.00000000       0.00000000       0.00000000       0.00000000       0.00000000       0.24220969
Pu       0.00000000       0.00000000       4.51010101       0.00000000       0.00000000      -0.24220969
2
Properties=species:S:1:pos:R:3:forces:R:3 energy=-21.764908534656993 pbc="F F F"
Pu       0.00000000       0.00000000       0.00000000       0.00000000       0.00000000       0.23863123
Pu       0.00000000       0.00000000       4.56969697       0.00000000       0.00000000      -0.23863123
2
Properties=species:S:1:pos:R:3:forces:R:3 energy=-21.75084499530508 pbc="F F F"
Pu       0.00000000       0.00000000       0.00000000       0.00000000       0.00000000       0.23299322
Pu       0.00000000       0.00000000       4.62929293       0.00000000       0.00000000      -0.23299322
2
Properties=species:S:1:pos:R:3:forces:R:3 energy=-21.73717415921347 pbc="F F F"
Pu       0.00000000       0.00000000       0.00000000       0.00000000       0.00000000       0.22547849
Pu       0.00000000       0.00000000       4.68888889       0.00000000       0.00000000      -0.22547849
2
Properties=species:S:1:pos:R:3:forces:R:3 energy=-21.72400326872941 pbc="F F F"
Pu       0.00000000       0.00000000       0.00000000       0.00000000       0.00000000       0.21632439
Pu       0.00000000       0.00000000       4.74848485       0.00000000       0.00000000      -0.21632439
2
Properties=species:S:1:pos:R:3:forces:R:3 energy=-21.711417273567115 pbc="F F F"
Pu       0.00000000       0.00000000       0.00000000       0.00000000       0.00000000       0.20580263
Pu       0.00000000       0.00000000       4.80808081       0.00000000       0.00000000      -0.20580263
2
Properties=species:S:1:pos:R:3:forces:R:3 energy=-21.69949388052058 pbc="F F F"
Pu       0.00000000       0.00000000       0.00000000       0.00000000       0.00000000       0.19419935
Pu       0.00000000       0.00000000       4.86767677       0.00000000       0.00000000      -0.19419935
2
Properties=species:S:1:pos:R:3:forces:R:3 energy=-21.688286666094225 pbc="F F F"
Pu       0.00000000       0.00000000       0.00000000       0.00000000       0.00000000       0.18179074
Pu       0.00000000       0.00000000       4.92727273       0.00000000       0.00000000      -0.18179074
2
Properties=species:S:1:pos:R:3:forces:R:3 energy=-21.677836254497617 pbc="F F F"
Pu       0.00000000       0.00000000       0.00000000       0.00000000       0.00000000       0.16884668
Pu       0.00000000       0.00000000       4.98686869       0.00000000       0.00000000      -0.16884668
2
Properties=species:S:1:pos:R:3:forces:R:3 energy=-21.66816675003836 pbc="F F F"
Pu       0.00000000       0.00000000       0.00000000       0.00000000       0.00000000       0.15564480
Pu       0.00000000       0.00000000       5.04646465       0.00000000       0.00000000      -0.15564480
2
Properties=species:S:1:pos:R:3:forces:R:3 energy=-21.65928363970411 pbc="F F F"
Pu       0.00000000       0.00000000       0.00000000       0.00000000       0.00000000       0.14251739
Pu       0.00000000       0.00000000       5.10606061       0.00000000       0.00000000      -0.14251739
2
Properties=species:S:1:pos:R:3:forces:R:3 energy=-21.65116814080878 pbc="F F F"
Pu       0.00000000       0.00000000       0.00000000       0.00000000       0.00000000       0.12994689
Pu       0.00000000       0.00000000       5.16565657       0.00000000       0.00000000      -0.12994689
2
Properties=species:S:1:pos:R:3:forces:R:3 energy=-21.643767638906795 pbc="F F F"
Pu       0.00000000       0.00000000       0.00000000       0.00000000       0.00000000       0.11871728
Pu       0.00000000       0.00000000       5.22525253       0.00000000       0.00000000      -0.11871728
2
Properties=species:S:1:pos:R:3:forces:R:3 energy=-21.636970746541024 pbc="F F F"
Pu       0.00000000       0.00000000       0.00000000       0.00000000       0.00000000       0.10993529
Pu       0.00000000       0.00000000       5.28484848       0.00000000       0.00000000      -0.10993529
2
Properties=species:S:1:pos:R:3:forces:R:3 energy=-21.630597867869966 pbc="F F F"
Pu       0.00000000       0.00000000       0.00000000       0.00000000       0.00000000       0.10441341
Pu       0.00000000       0.00000000       5.34444444       0.00000000       0.00000000      -0.10441341
2
Properties=species:S:1:pos:R:3:forces:R:3 energy=-21.624490647648486 pbc="F F F"
Pu       0.00000000       0.00000000       0.00000000       0.00000000       0.00000000       0.10042130
Pu       0.00000000       0.00000000       5.40404040       0.00000000       0.00000000      -0.10042130
2
Properties=species:S:1:pos:R:3:forces:R:3 energy=-21.618714118504684 pbc="F F F"
Pu       0.00000000       0.00000000       0.00000000       0.00000000       0.00000000       0.09225404
Pu       0.00000000       0.00000000       5.46363636       0.00000000       0.00000000      -0.09225404
2
Properties=species:S:1:pos:R:3:forces:R:3 energy=-21.613606266661773 pbc="F F F"
Pu       0.00000000       0.00000000       0.00000000       0.00000000       0.00000000       0.07897869
Pu       0.00000000       0.00000000       5.52323232       0.00000000       0.00000000      -0.07897869
2
Properties=species:S:1:pos:R:3:forces:R:3 energy=-21.609228601490223 pbc="F F F"
Pu       0.00000000       0.00000000       0.00000000       0.00000000       0.00000000       0.06896769
Pu       0.00000000       0.00000000       5.58282828       0.00000000       0.00000000      -0.06896769
2
Properties=species:S:1:pos:R:3:forces:R:3 energy=-21.6053069199942 pbc="F F F"
Pu       0.00000000       0.00000000       0.00000000       0.00000000       0.00000000       0.06262402
Pu       0.00000000       0.00000000       5.64242424       0.00000000       0.00000000      -0.06262402
2
Properties=species:S:1:pos:R:3:forces:R:3 energy=-21.6018644958725 pbc="F F F"
Pu       0.00000000       0.00000000       0.00000000       0.00000000       0.00000000       0.05129012
Pu       0.00000000       0.00000000       5.70202020       0.00000000       0.00000000      -0.05129012
2
Properties=species:S:1:pos:R:3:forces:R:3 energy=-21.59938037678379 pbc="F F F"
Pu       0.00000000       0.00000000       0.00000000       0.00000000       0.00000000       0.03149152
Pu       0.00000000       0.00000000       5.76161616       0.00000000       0.00000000      -0.03149152
2
Properties=species:S:1:pos:R:3:forces:R:3 energy=-21.597948015516334 pbc="F F F"
Pu       0.00000000       0.00000000       0.00000000       0.00000000       0.00000000       0.01951503
Pu       0.00000000       0.00000000       5.82121212       0.00000000       0.00000000      -0.01951503
2
Properties=species:S:1:pos:R:3:forces:R:3 energy=-21.596727981307616 pbc="F F F"
Pu       0.00000000       0.00000000       0.00000000       0.00000000       0.00000000       0.02300408
Pu       0.00000000       0.00000000       5.88080808       0.00000000       0.00000000      -0.02300408
2
Properties=species:S:1:pos:R:3:forces:R:3 energy=-21.595151287755396 pbc="F F F"
Pu       0.00000000       0.00000000       0.00000000       0.00000000       0.00000000       0.02973313
Pu       0.00000000       0.00000000       5.94040404       0.00000000       0.00000000      -0.02973313
2
Properties=species:S:1:pos:R:3:forces:R:3 energy=-21.593276130368487 pbc="F F F"
Pu       0.00000000       0.00000000       0.00000000       0.00000000       0.00000000       0.03215090
Pu       0.00000000       0.00000000       6.00000000       0.00000000       0.00000000      -0.03215090
