2
Properties=species:S:1:pos:R:3:forces:R:3 energy=23608.78964217862 pbc="F F F"
Pu       0.00000000       0.00000000       0.00000000       0.00000000       0.00000000 -368484.21875000
Pu       0.00000000       0.00000000       0.18000000       0.00000000       0.00000000  368484.21875000
2
Properties=species:S:1:pos:R:3:forces:R:3 energy=10869.40292342862 pbc="F F F"
Pu       0.00000000       0.00000000       0.00000000       0.00000000       0.00000000 -118756.44531250
Pu       0.00000000       0.00000000       0.23878788       0.00000000       0.00000000  118756.44531250
2
Properties=species:S:1:pos:R:3:forces:R:3 energy=6433.443939053622 pbc="F F F"
Pu       0.00000000       0.00000000       0.00000000       0.00000000       0.00000000  -45498.03906250
Pu       0.00000000       0.00000000       0.29757576       0.00000000       0.00000000   45498.03906250
2
Properties=species:S:1:pos:R:3:forces:R:3 energy=4626.315521084872 pbc="F F F"
Pu       0.00000000       0.00000000       0.00000000       0.00000000       0.00000000  -20182.93359375
Pu       0.00000000       0.00000000       0.35636364       0.00000000       0.00000000   20182.93359375
2
Properties=species:S:1:pos:R:3:forces:R:3 energy=3757.0518492098713 pbc="F F F"
Pu       0.00000000       0.00000000       0.00000000       0.00000000       0.00000000  -10935.15722656
Pu       0.00000000       0.00000000       0.41515152       0.00000000       0.00000000   10935.15722656
2
Properties=species:S:1:pos:R:3:forces:R:3 energy=3222.969817966207 pbc="F F F"
Pu       0.00000000       0.00000000       0.00000000       0.00000000       0.00000000   -7867.53906250
Pu       0.00000000       0.00000000       0.47393939       0.00000000       0.00000000    7867.53906250
2
Properties=species:S:1:pos:R:3:forces:R:3 energy=2782.894134378793 pbc="F F F"
Pu       0.00000000       0.00000000       0.00000000       0.00000000       0.00000000   -7365.20263672
Pu       0.00000000       0.00000000       0.53272727       0.00000000       0.00000000    7365.20263672
2
Properties=species:S:1:pos:R:3:forces:R:3 energy=2339.057952750839 pbc="F F F"
Pu       0.00000000       0.00000000       0.00000000       0.00000000       0.00000000   -7796.81542969
Pu       0.00000000       0.00000000       0.59151515       0.00000000       0.00000000    7796.81542969
2
Properties=species:S:1:pos:R:3:forces:R:3 energy=1872.727386363596 pbc="F F F"
Pu       0.00000000       0.00000000       0.00000000       0.00000000       0.00000000   -7308.41552734
Pu       0.00000000       0.00000000       0.65030303       0.00000000       0.00000000    7308.41552734
2
Properties=species:S:1:pos:R:3:forces:R:3 energy=1434.7757262390242 pbc="F F F"
Pu       0.00000000       0.00000000       0.00000000       0.00000000       0.00000000   -7444.69482422
Pu       0.00000000       0.00000000       0.70909091       0.00000000       0.00000000    7444.69482422
2
Properties=species:S:1:pos:R:3:forces:R:3 energy=1016.523467988928 pbc="F F F"
Pu       0.00000000       0.00000000       0.00000000       0.00000000       0.00000000   -6632.76367188
Pu       0.00000000       0.00000000       0.76787879       0.00000000       0.00000000    6632.76367188
2
Properties=species:S:1:pos:R:3:forces:R:3 energy=664.9658508711201 pbc="F F F"
Pu       0.00000000       0.00000000       0.00000000       0.00000000       0.00000000   -5225.17089844
Pu       0.00000000       0.00000000       0.82666667       0.00000000       0.00000000    5225.17089844
2
Properties=species:S:1:pos:R:3:forces:R:3 energy=407.46914687092794 pbc="F F F"
Pu       0.00000000       0.00000000       0.00000000       0.00000000       0.00000000   -3646.63305664
Pu       0.00000000       0.00000000       0.88545455       0.00000000       0.00000000    3646.63305664
2
Properties=species:S:1:pos:R:3:forces:R:3 energy=257.066376020554 pbc="F F F"
Pu       0.00000000       0.00000000       0.00000000       0.00000000       0.00000000   -1882.92529297
Pu       0.00000000       0.00000000       0.94424242       0.00000000       0.00000000    1882.92529297
2
Properties=species:S:1:pos:R:3:forces:R:3 energy=167.45037890250586 pbc="F F F"
Pu       0.00000000       0.00000000       0.00000000       0.00000000       0.00000000   -1093.19665527
Pu       0.00000000       0.00000000       1.00303030       0.00000000       0.00000000    1093.19665527
2
Properties=species:S:1:pos:R:3:forces:R:3 energy=126.4433448668451 pbc="F F F"
Pu       0.00000000       0.00000000       0.00000000       0.00000000       0.00000000    -370.40530396
Pu       0.00000000       0.00000000       1.06181818       0.00000000       0.00000000     370.40530396
2
Properties=species:S:1:pos:R:3:forces:R:3 energy=111.1612712470318 pbc="F F F"
Pu       0.00000000       0.00000000       0.00000000       0.00000000       0.00000000    -257.85913086
Pu       0.00000000       0.00000000       1.12060606       0.00000000       0.00000000     257.85913086
2
Properties=species:S:1:pos:R:3:forces:R:3 energy=94.01299443315465 pbc="F F F"
Pu       0.00000000       0.00000000       0.00000000       0.00000000       0.00000000    -309.10028076
Pu       0.00000000       0.00000000       1.17939394       0.00000000       0.00000000     309.10028076
2
Properties=species:S:1:pos:R:3:forces:R:3 energy=76.66395022890052 pbc="F F F"
Pu       0.00000000       0.00000000       0.00000000       0.00000000       0.00000000    -275.86395264
Pu       0.00000000       0.00000000       1.23818182       0.00000000       0.00000000     275.86395264
2
Properties=species:S:1:pos:R:3:forces:R:3 energy=61.32737262637285 pbc="F F F"
Pu       0.00000000       0.00000000       0.00000000       0.00000000       0.00000000    -250.87367249
Pu       0.00000000       0.00000000       1.29696970       0.00000000       0.00000000     250.87367249
2
Properties=species:S:1:pos:R:3:forces:R:3 energy=47.204639532237856 pbc="F F F"
Pu       0.00000000       0.00000000       0.00000000       0.00000000       0.00000000    -221.78727722
Pu       0.00000000       0.00000000       1.35575758       0.00000000       0.00000000     221.78727722
2
Properties=species:S:1:pos:R:3:forces:R:3 energy=35.78040445107413 pbc="F F F"
Pu       0.00000000       0.00000000       0.00000000       0.00000000       0.00000000    -171.48391724
Pu       0.00000000       0.00000000       1.41454545       0.00000000       0.00000000     171.48391724
2
Properties=species:S:1:pos:R:3:forces:R:3 energy=26.208872755832477 pbc="F F F"
Pu       0.00000000       0.00000000       0.00000000       0.00000000       0.00000000    -158.50373840
Pu       0.00000000       0.00000000       1.47333333       0.00000000       0.00000000     158.50373840
2
Properties=species:S:1:pos:R:3:forces:R:3 energy=17.047612106304868 pbc="F F F"
Pu       0.00000000       0.00000000       0.00000000       0.00000000       0.00000000    -152.08694458
Pu       0.00000000       0.00000000       1.53212121       0.00000000       0.00000000     152.08694458
2
Properties=species:S:1:pos:R:3:forces:R:3 energy=8.461350717849317 pbc="F F F"
Pu       0.00000000       0.00000000       0.00000000       0.00000000       0.00000000    -139.19674683
Pu       0.00000000       0.00000000       1.59090909       0.00000000       0.00000000     139.19674683
2
Properties=species:S:1:pos:R:3:forces:R:3 energy=0.7665559706567334 pbc="F F F"
Pu       0.00000000       0.00000000       0.00000000       0.00000000       0.00000000    -121.73119354
Pu       0.00000000       0.00000000       1.64969697       0.00000000       0.00000000     121.73119354
2
Properties=species:S:1:pos:R:3:forces:R:3 energy=-5.750146216130499 pbc="F F F"
Pu       0.00000000       0.00000000       0.00000000       0.00000000       0.00000000     -99.47564697
Pu       0.00000000       0.00000000       1.70848485       0.00000000       0.00000000      99.47564697
2
Properties=species:S:1:pos:R:3:forces:R:3 energy=-10.950893529301059 pbc="F F F"
Pu       0.00000000       0.00000000       0.00000000       0.00000000       0.00000000     -78.13133240
Pu       0.00000000       0.00000000       1.76727273       0.00000000       0.00000000      78.13133240
2
Properties=species:S:1:pos:R:3:forces:R:3 energy=-15.013381129166373 pbc="F F F"
Pu       0.00000000       0.00000000       0.00000000       0.00000000       0.00000000     -60.50066376
Pu       0.00000000       0.00000000       1.82606061       0.00000000       0.00000000      60.50066376
2
Properties=species:S:1:pos:R:3:forces:R:3 energy=-18.088385771118634 pbc="F F F"
Pu       0.00000000       0.00000000       0.00000000       0.00000000       0.00000000     -44.22641754
Pu       0.00000000       0.00000000       1.88484848       0.00000000       0.00000000      44.22641754
2
Properties=species:S:1:pos:R:3:forces:R:3 energy=-20.236681165260972 pbc="F F F"
Pu       0.00000000       0.00000000       0.00000000       0.00000000       0.00000000     -29.20862389
Pu       0.00000000       0.00000000       1.94363636       0.00000000       0.00000000      29.20862389
2
Properties=species:S:1:pos:R:3:forces:R:3 energy=-21.582616753654133 pbc="F F F"
Pu       0.00000000       0.00000000       0.00000000       0.00000000       0.00000000     -17.21848679
Pu       0.00000000       0.00000000       2.00242424       0.00000000       0.00000000      17.21848679
2
Properties=species:S:1:pos:R:3:forces:R:3 energy=-22.341406172548712 pbc="F F F"
Pu       0.00000000       0.00000000       0.00000000       0.00000000       0.00000000      -9.26488495
Pu       0.00000000       0.00000000       2.06121212       0.00000000       0.00000000       9.26488495
2
Properties=species:S:1:pos:R:3:forces:R:3 energy=-22.7406435884788 pbc="F F F"
Pu       0.00000000       0.00000000       0.00000000       0.00000000       0.00000000      -4.78840923
Pu       0.00000000       0.00000000       2.12000000       0.00000000       0.00000000       4.78840923
2
Properties=species:S:1:pos:R:3:forces:R:3 energy=-22.945102790428965 pbc="F F F"
Pu       0.00000000       0.00000000       0.00000000       0.00000000       0.00000000      -2.39947248
Pu       0.00000000       0.00000000       2.17878788       0.00000000       0.00000000       2.39947248
2
Properties=species:S:1:pos:R:3:forces:R:3 energy=-23.04068484237022 pbc="F F F"
Pu       0.00000000       0.00000000       0.00000000       0.00000000       0.00000000      -0.95343792
Pu       0.00000000       0.00000000       2.23757576       0.00000000       0.00000000       0.95343792
2
Properties=species:S:1:pos:R:3:forces:R:3 energy=-23.067466763705884 pbc="F F F"
Pu       0.00000000       0.00000000       0.00000000       0.00000000       0.00000000      -0.04773391
Pu       0.00000000       0.00000000       2.29636364       0.00000000       0.00000000       0.04773391
2
Properties=species:S:1:pos:R:3:forces:R:3 energy=-23.05805460328616 pbc="F F F"
Pu       0.00000000       0.00000000       0.00000000       0.00000000       0.00000000       0.26536784
Pu       0.00000000       0.00000000       2.35515152       0.00000000       0.00000000      -0.26536784
2
Properties=species:S:1:pos:R:3:forces:R:3 energy=-23.045741011119546 pbc="F F F"
Pu       0.00000000       0.00000000       0.00000000       0.00000000       0.00000000       0.11471187
Pu       0.00000000       0.00000000       2.41393939       0.00000000       0.00000000      -0.11471187
2
Properties=species:S:1:pos:R:3:forces:R:3 energy=-23.041935993817656 pbc="F F F"
Pu       0.00000000       0.00000000       0.00000000       0.00000000       0.00000000       0.09694665
Pu       0.00000000       0.00000000       2.47272727       0.00000000       0.00000000      -0.09694665
2
Properties=species:S:1:pos:R:3:forces:R:3 energy=-23.020966847859096 pbc="F F F"
Pu       0.00000000       0.00000000       0.00000000       0.00000000       0.00000000       0.73036152
Pu       0.00000000       0.00000000       2.53151515       0.00000000       0.00000000      -0.73036152
2
Properties=species:S:1:pos:R:3:forces:R:3 energy=-22.947903391414336 pbc="F F F"
Pu       0.00000000       0.00000000       0.00000000       0.00000000       0.00000000       1.76306951
Pu       0.00000000       0.00000000       2.59030303       0.00000000       0.00000000      -1.76306951
2
Properties=species:S:1:pos:R:3:forces:R:3 energy=-22.819859343180195 pbc="F F F"
Pu       0.00000000       0.00000000       0.00000000       0.00000000       0.00000000       2.49591064
Pu       0.00000000       0.00000000       2.64909091       0.00000000       0.00000000      -2.49591064
2
Properties=species:S:1:pos:R:3:forces:R:3 energy=-22.667379592064687 pbc="F F F"
Pu       0.00000000       0.00000000       0.00000000       0.00000000       0.00000000       2.58776975
Pu       0.00000000       0.00000000       2.70787879       0.00000000       0.00000000      -2.58776975
2
Properties=species:S:1:pos:R:3:forces:R:3 energy=-22.524930180649108 pbc="F F F"
Pu       0.00000000       0.00000000       0.00000000       0.00000000       0.00000000       2.20801759
Pu       0.00000000       0.00000000       2.76666667       0.00000000       0.00000000      -2.20801759
2
Properties=species:S:1:pos:R:3:forces:R:3 energy=-22.4104958783718 pbc="F F F"
Pu       0.00000000       0.00000000       0.00000000       0.00000000       0.00000000       1.68453038
Pu       0.00000000       0.00000000       2.82545455       0.00000000       0.00000000      -1.68453038
2
Properties=species:S:1:pos:R:3:forces:R:3 energy=-22.32527411843702 pbc="F F F"
Pu       0.00000000       0.00000000       0.00000000       0.00000000       0.00000000       1.23712587
Pu       0.00000000       0.00000000       2.88424242       0.00000000       0.00000000      -1.23712587
2
Properties=species:S:1:pos:R:3:forces:R:3 energy=-22.26213331573313 pbc="F F F"
Pu       0.00000000       0.00000000       0.00000000       0.00000000       0.00000000       0.93503678
Pu       0.00000000       0.00000000       2.94303030       0.00000000       0.00000000      -0.93503678
2
Properties=species:S:1:pos:R:3:forces:R:3 energy=-22.212883223334828 pbc="F F F"
Pu       0.00000000       0.00000000       0.00000000       0.00000000       0.00000000       0.75739241
Pu       0.00000000       0.00000000       3.00181818       0.00000000       0.00000000      -0.75739241
2
Properties=species:S:1:pos:R:3:forces:R:3 energy=-22.171592014196484 pbc="F F F"
Pu       0.00000000       0.00000000       0.00000000       0.00000000       0.00000000       0.65613365
Pu       0.00000000       0.00000000       3.06060606       0.00000000       0.00000000      -0.65613365
2
Properties=species:S:1:pos:R:3:forces:R:3 energy=-22.135058175229023 pbc="F F F"
Pu       0.00000000       0.00000000       0.00000000       0.00000000       0.00000000       0.59010088
Pu       0.00000000       0.00000000       3.11939394       0.00000000       0.00000000      -0.59010088
2
Properties=species:S:1:pos:R:3:forces:R:3 energy=-22.102010985458577 pbc="F F F"
Pu       0.00000000       0.00000000       0.00000000       0.00000000       0.00000000       0.53478897
Pu       0.00000000       0.00000000       3.17818182       0.00000000       0.00000000      -0.53478897
2
Properties=species:S:1:pos:R:3:forces:R:3 energy=-22.072178816601788 pbc="F F F"
Pu       0.00000000       0.00000000       0.00000000       0.00000000       0.00000000       0.47985473
Pu       0.00000000       0.00000000       3.23696970       0.00000000       0.00000000      -0.47985473
2
Properties=species:S:1:pos:R:3:forces:R:3 energy=-22.04562505800029 pbc="F F F"
Pu       0.00000000       0.00000000       0.00000000       0.00000000       0.00000000       0.42334744
Pu       0.00000000       0.00000000       3.29575758       0.00000000       0.00000000      -0.42334744
2
Properties=species:S:1:pos:R:3:forces:R:3 energy=-22.022405116025546 pbc="F F F"
Pu       0.00000000       0.00000000       0.00000000       0.00000000       0.00000000       0.36675483
Pu       0.00000000       0.00000000       3.35454545       0.00000000       0.00000000      -0.36675483
2
Properties=species:S:1:pos:R:3:forces:R:3 energy=-22.002465653735122 pbc="F F F"
Pu       0.00000000       0.00000000       0.00000000       0.00000000       0.00000000       0.31196797
Pu       0.00000000       0.00000000       3.41333333       0.00000000       0.00000000      -0.31196797
2
Properties=species:S:1:pos:R:3:forces:R:3 energy=-21.985667011817103 pbc="F F F"
Pu       0.00000000       0.00000000       0.00000000       0.00000000       0.00000000       0.26015782
Pu       0.00000000       0.00000000       3.47212121       0.00000000       0.00000000      -0.26015782
2
Properties=species:S:1:pos:R:3:forces:R:3 energy=-21.971802282774163 pbc="F F F"
Pu       0.00000000       0.00000000       0.00000000       0.00000000       0.00000000       0.21232907
Pu       0.00000000       0.00000000       3.53090909       0.00000000       0.00000000      -0.21232907
2
Properties=species:S:1:pos:R:3:forces:R:3 energy=-21.960575561093105 pbc="F F F"
Pu       0.00000000       0.00000000       0.00000000       0.00000000       0.00000000       0.17099479
Pu       0.00000000       0.00000000       3.58969697       0.00000000       0.00000000      -0.17099479
2
Properties=species:S:1:pos:R:3:forces:R:3 energy=-21.95146749235771 pbc="F F F"
Pu       0.00000000       0.00000000       0.00000000       0.00000000       0.00000000       0.14138566
Pu       0.00000000       0.00000000       3.64848485       0.00000000       0.00000000      -0.14138566
2
Properties=species:S:1:pos:R:3:forces:R:3 energy=-21.94360334293056 pbc="F F F"
Pu       0.00000000       0.00000000       0.00000000       0.00000000       0.00000000       0.12938774
Pu       0.00000000       0.00000000       3.70727273       0.00000000       0.00000000      -0.12938774
2
Properties=species:S:1:pos:R:3:forces:R:3 energy=-21.935888821577265 pbc="F F F"
Pu       0.00000000       0.00000000       0.00000000       0.00000000       0.00000000       0.13576105
Pu       0.00000000       0.00000000       3.76606061       0.00000000       0.00000000      -0.13576105
2
Properties=species:S:1:pos:R:3:forces:R:3 energy=-21.927422461118773 pbc="F F F"
Pu       0.00000000       0.00000000       0.00000000       0.00000000       0.00000000       0.15324934
Pu       0.00000000       0.00000000       3.82484848       0.00000000       0.00000000      -0.15324934
2
Properties=species:S:1:pos:R:3:forces:R:3 energy=-21.917846879542143 pbc="F F F"
Pu       0.00000000       0.00000000       0.00000000       0.00000000       0.00000000       0.17215340
Pu       0.00000000       0.00000000       3.88363636       0.00000000       0.00000000      -0.17215340
2
Properties=species:S:1:pos:R:3:forces:R:3 energy=-21.907257242931436 pbc="F F F"
Pu       0.00000000       0.00000000       0.00000000       0.00000000       0.00000000       0.18734527
Pu       0.00000000       0.00000000       3.94242424       0.00000000       0.00000000      -0.18734527
2
Properties=species:S:1:pos:R:3:forces:R:3 energy=-21.8958936367188 pbc="F F F"
Pu       0.00000000       0.00000000       0.00000000       0.00000000       0.00000000       0.19877382
Pu       0.00000000       0.00000000       4.00121212       0.00000000       0.00000000      -0.19877382
2
Properties=species:S:1:pos:R:3:forces:R:3 energy=-21.88392689114723 pbc="F F F"
Pu       0.00000000       0.00000000       0.00000000       0.00000000       0.00000000       0.20813859
Pu       0.00000000       0.00000000       4.06000000       0.00000000       0.00000000      -0.20813859
2
Properties=species:S:1:pos:R:3:forces:R:3 energy=-21.871438196683922 pbc="F F F"
Pu       0.00000000       0.00000000       0.00000000       0.00000000       0.00000000       0.21662971
Pu       0.00000000       0.00000000       4.11878788       0.00000000       0.00000000      -0.21662971
2
Properties=species:S:1:pos:R:3:forces:R:3 energy=-21.85846638123742 pbc="F F F"
Pu       0.00000000       0.00000000       0.00000000       0.00000000       0.00000000       0.22452192
Pu       0.00000000       0.00000000       4.17757576       0.00000000       0.00000000      -0.22452192
2
Properties=species:S:1:pos:R:3:forces:R:3 energy=-21.84505594701266 pbc="F F F"
Pu       0.00000000       0.00000000       0.00000000       0.00000000       0.00000000       0.23154372
Pu       0.00000000       0.00000000       4.23636364       0.00000000       0.00000000      -0.23154372
2
Properties=species:S:1:pos:R:3:forces:R:3 energy=-21.831268167362772 pbc="F F F"
Pu       0.00000000       0.00000000       0.00000000       0.00000000       0.00000000       0.23726276
Pu       0.00000000       0.00000000       4.29515152       0.00000000       0.00000000      -0.23726276
2
Properties=species:S:1:pos:R:3:forces:R:3 energy=-21.817194068204564 pbc="F F F"
Pu       0.00000000       0.00000000       0.00000000       0.00000000       0.00000000       0.24129845
Pu       0.00000000       0.00000000       4.35393939       0.00000000       0.00000000      -0.24129845
2
Properties=species:S:1:pos:R:3:forces:R:3 energy=-21.80293592378105 pbc="F F F"
Pu       0.00000000       0.00000000       0.00000000       0.00000000       0.00000000       0.24338293
Pu       0.00000000       0.00000000       4.41272727       0.00000000       0.00000000      -0.24338293
2
Properties=species:S:1:pos:R:3:forces:R:3 energy=-21.78861745199195 pbc="F F F"
Pu       0.00000000       0.00000000       0.00000000       0.00000000       0.00000000       0.24337557
Pu       0.00000000       0.00000000       4.47151515       0.00000000       0.00000000      -0.24337557
2
Properties=species:S:1:pos:R:3:forces:R:3 energy=-21.77436217433201 pbc="F F F"
Pu       0.00000000       0.00000000       0.00000000       0.00000000       0.00000000       0.24123542
Pu       0.00000000       0.00000000       4.53030303       0.00000000       0.00000000      -0.24123542
2
Properties=species:S:1:pos:R:3:forces:R:3 energy=-21.760295494302024 pbc="F F F"
Pu       0.00000000       0.00000000       0.00000000       0.00000000       0.00000000       0.23701467
Pu       0.00000000       0.00000000       4.58909091       0.00000000       0.00000000      -0.23701467
2
Properties=species:S:1:pos:R:3:forces:R:3 energy=-21.746535471112256 pbc="F F F"
Pu       0.00000000       0.00000000       0.00000000       0.00000000       0.00000000       0.23084080
Pu       0.00000000       0.00000000       4.64787879       0.00000000       0.00000000      -0.23084080
2
Properties=species:S:1:pos:R:3:forces:R:3 energy=-21.733189112691118 pbc="F F F"
Pu       0.00000000       0.00000000       0.00000000       0.00000000       0.00000000       0.22290678
Pu       0.00000000       0.00000000       4.70666667       0.00000000       0.00000000      -0.22290678
2
Properties=species:S:1:pos:R:3:forces:R:3 energy=-21.720356184046786 pbc="F F F"
Pu       0.00000000       0.00000000       0.00000000       0.00000000       0.00000000       0.21345565
Pu       0.00000000       0.00000000       4.76545455       0.00000000       0.00000000      -0.21345565
2
Properties=species:S:1:pos:R:3:forces:R:3 energy=-21.70811597620403 pbc="F F F"
Pu       0.00000000       0.00000000       0.00000000       0.00000000       0.00000000       0.20275252
Pu       0.00000000       0.00000000       4.82424242       0.00000000       0.00000000      -0.20275252
2
Properties=species:S:1:pos:R:3:forces:R:3 energy=-21.696536817604784 pbc="F F F"
Pu       0.00000000       0.00000000       0.00000000       0.00000000       0.00000000       0.19106907
Pu       0.00000000       0.00000000       4.88303030       0.00000000       0.00000000      -0.19106907
2
Properties=species:S:1:pos:R:3:forces:R:3 energy=-21.685664604673775 pbc="F F F"
Pu       0.00000000       0.00000000       0.00000000       0.00000000       0.00000000       0.17867059
Pu       0.00000000       0.00000000       4.94181818       0.00000000       0.00000000      -0.17867059
2
Properties=species:S:1:pos:R:3:forces:R:3 energy=-21.675538130299675 pbc="F F F"
Pu       0.00000000       0.00000000       0.00000000       0.00000000       0.00000000       0.16581543
Pu       0.00000000       0.00000000       5.00060606       0.00000000       0.00000000      -0.16581543
2
Properties=species:S:1:pos:R:3:forces:R:3 energy=-21.666171962046924 pbc="F F F"
Pu       0.00000000       0.00000000       0.00000000       0.00000000       0.00000000       0.15277590
Pu       0.00000000       0.00000000       5.05939394       0.00000000       0.00000000      -0.15277590
2
Properties=species:S:1:pos:R:3:forces:R:3 energy=-21.657571536218025 pbc="F F F"
Pu       0.00000000       0.00000000       0.00000000       0.00000000       0.00000000       0.13989423
Pu       0.00000000       0.00000000       5.11818182       0.00000000       0.00000000      -0.13989423
2
Properties=species:S:1:pos:R:3:forces:R:3 energy=-21.64971231640277 pbc="F F F"
Pu       0.00000000       0.00000000       0.00000000       0.00000000       0.00000000       0.12768289
Pu       0.00000000       0.00000000       5.17696970       0.00000000       0.00000000      -0.12768289
2
Properties=species:S:1:pos:R:3:forces:R:3 energy=-21.642530079337025 pbc="F F F"
Pu       0.00000000       0.00000000       0.00000000       0.00000000       0.00000000       0.11695830
Pu       0.00000000       0.00000000       5.23575758       0.00000000       0.00000000      -0.11695830
2
Properties=species:S:1:pos:R:3:forces:R:3 energy=-21.635909559509965 pbc="F F F"
Pu       0.00000000       0.00000000       0.00000000       0.00000000       0.00000000       0.10881181
Pu       0.00000000       0.00000000       5.29454545       0.00000000       0.00000000      -0.10881181
2
Properties=species:S:1:pos:R:3:forces:R:3 energy=-21.629672891030676 pbc="F F F"
Pu       0.00000000       0.00000000       0.00000000       0.00000000       0.00000000       0.10382365
Pu       0.00000000       0.00000000       5.35333333       0.00000000       0.00000000      -0.10382365
2
Properties=species:S:1:pos:R:3:forces:R:3 energy=-21.623682490412723 pbc="F F F"
Pu       0.00000000       0.00000000       0.00000000       0.00000000       0.00000000       0.09969786
Pu       0.00000000       0.00000000       5.41212121       0.00000000       0.00000000      -0.09969786
2
Properties=species:S:1:pos:R:3:forces:R:3 energy=-21.61804898291771 pbc="F F F"
Pu       0.00000000       0.00000000       0.00000000       0.00000000       0.00000000       0.09078126
Pu       0.00000000       0.00000000       5.47090909       0.00000000       0.00000000      -0.09078126
2
Properties=species:S:1:pos:R:3:forces:R:3 energy=-21.613100564599907 pbc="F F F"
Pu       0.00000000       0.00000000       0.00000000       0.00000000       0.00000000       0.07760462
Pu       0.00000000       0.00000000       5.52969697       0.00000000       0.00000000      -0.07760462
2
Properties=species:S:1:pos:R:3:forces:R:3 energy=-21.60883938260334 pbc="F F F"
Pu       0.00000000       0.00000000       0.00000000       0.00000000       0.00000000       0.06831028
Pu       0.00000000       0.00000000       5.58848485       0.00000000       0.00000000      -0.06831028
2
Properties=species:S:1:pos:R:3:forces:R:3 energy=-21.605004350953756 pbc="F F F"
Pu       0.00000000       0.00000000       0.00000000       0.00000000       0.00000000       0.06202001
Pu       0.00000000       0.00000000       5.64727273       0.00000000       0.00000000      -0.06202001
2
Properties=species:S:1:pos:R:3:forces:R:3 energy=-21.60166044525846 pbc="F F F"
Pu       0.00000000       0.00000000       0.00000000       0.00000000       0.00000000       0.05015163
Pu       0.00000000       0.00000000       5.70606061       0.00000000       0.00000000      -0.05015163
2
Properties=species:S:1:pos:R:3:forces:R:3 energy=-21.599280668012362 pbc="F F F"
Pu       0.00000000       0.00000000       0.00000000       0.00000000       0.00000000       0.03039783
Pu       0.00000000       0.00000000       5.76484848       0.00000000       0.00000000      -0.03039783
2
Properties=species:S:1:pos:R:3:forces:R:3 energy=-21.597901105824917 pbc="F F F"
Pu       0.00000000       0.00000000       0.00000000       0.00000000       0.00000000       0.01940710
Pu       0.00000000       0.00000000       5.82363636       0.00000000       0.00000000      -0.01940710
2
Properties=species:S:1:pos:R:3:forces:R:3 energy=-21.59669348692142 pbc="F F F"
Pu       0.00000000       0.00000000       0.00000000       0.00000000       0.00000000       0.02319491
Pu       0.00000000       0.00000000       5.88242424       0.00000000       0.00000000      -0.02319491
2
Properties=species:S:1:pos:R:3:forces:R:3 energy=-21.595124861783038 pbc="F F F"
Pu       0.00000000       0.00000000       0.00000000       0.00000000       0.00000000       0.02981410
Pu       0.00000000       0.00000000       5.94121212       0.00000000       0.00000000      -0.02981410
2
Properties=species:S:1:pos:R:3:forces:R:3 energy=-21.593276130368487 pbc="F F F"
Pu       0.00000000       0.00000000       0.00000000       0.00000000       0.00000000       0.03215090
Pu       0.00000000       0.00000000       6.00000000       0.00000000       0.00000000      -0.03215090
