2
Properties=species:S:1:pos:R:3:forces:R:3 energy=8286.008262076073 pbc="F F F"
Sb       0.00000000       0.00000000       0.00000000       0.00000000       0.00000000 -148240.15625000
Sb       0.00000000       0.00000000       0.18000000       0.00000000       0.00000000  148240.15625000
2
Properties=species:S:1:pos:R:3:forces:R:3 energy=3064.163291372948 pbc="F F F"
Sb       0.00000000       0.00000000       0.00000000       0.00000000       0.00000000  -49551.38281250
Sb       0.00000000       0.00000000       0.23878788       0.00000000       0.00000000   49551.38281250
2
Properties=species:S:1:pos:R:3:forces:R:3 energy=1239.674765982323 pbc="F F F"
Sb       0.00000000       0.00000000       0.00000000       0.00000000       0.00000000  -17678.98242188
Sb       0.00000000       0.00000000       0.29757576       0.00000000       0.00000000   17678.98242188
2
Properties=species:S:1:pos:R:3:forces:R:3 energy=630.6432718480337 pbc="F F F"
Sb       0.00000000       0.00000000       0.00000000       0.00000000       0.00000000   -4825.10791016
Sb       0.00000000       0.00000000       0.35636364       0.00000000       0.00000000    4825.10791016
2
Properties=species:S:1:pos:R:3:forces:R:3 energy=524.6920389378774 pbc="F F F"
Sb       0.00000000       0.00000000       0.00000000       0.00000000       0.00000000     268.41961670
Sb       0.00000000       0.00000000       0.41515152       0.00000000       0.00000000    -268.41961670
2
Properties=species:S:1:pos:R:3:forces:R:3 energy=560.3415750896969 pbc="F F F"
Sb       0.00000000       0.00000000       0.00000000       0.00000000       0.00000000    -319.55981445
Sb       0.00000000       0.00000000       0.47393939       0.00000000       0.00000000     319.55981445
2
Properties=species:S:1:pos:R:3:forces:R:3 energy=511.5187296623907 pbc="F F F"
Sb       0.00000000       0.00000000       0.00000000       0.00000000       0.00000000   -1485.42358398
Sb       0.00000000       0.00000000       0.53272727       0.00000000       0.00000000    1485.42358398
2
Properties=species:S:1:pos:R:3:forces:R:3 energy=324.95610764276336 pbc="F F F"
Sb       0.00000000       0.00000000       0.00000000       0.00000000       0.00000000   -3601.44946289
Sb       0.00000000       0.00000000       0.59151515       0.00000000       0.00000000    3601.44946289
2
Properties=species:S:1:pos:R:3:forces:R:3 energy=192.06322441800984 pbc="F F F"
Sb       0.00000000       0.00000000       0.00000000       0.00000000       0.00000000   -1328.96447754
Sb       0.00000000       0.00000000       0.65030303       0.00000000       0.00000000    1328.96447754
2
Properties=species:S:1:pos:R:3:forces:R:3 energy=155.92537665066774 pbc="F F F"
Sb       0.00000000       0.00000000       0.00000000       0.00000000       0.00000000    -105.47063446
Sb       0.00000000       0.00000000       0.70909091       0.00000000       0.00000000     105.47063446
2
Properties=species:S:1:pos:R:3:forces:R:3 energy=146.95726771621335 pbc="F F F"
Sb       0.00000000       0.00000000       0.00000000       0.00000000       0.00000000    -219.67842102
Sb       0.00000000       0.00000000       0.76787879       0.00000000       0.00000000     219.67842102
2
Properties=species:S:1:pos:R:3:forces:R:3 energy=132.8308641927236 pbc="F F F"
Sb       0.00000000       0.00000000       0.00000000       0.00000000       0.00000000    -247.42108154
Sb       0.00000000       0.00000000       0.82666667       0.00000000       0.00000000     247.42108154
2
Properties=species:S:1:pos:R:3:forces:R:3 energy=119.36116093022406 pbc="F F F"
Sb       0.00000000       0.00000000       0.00000000       0.00000000       0.00000000    -217.92033386
Sb       0.00000000       0.00000000       0.88545455       0.00000000       0.00000000     217.92033386
2
Properties=species:S:1:pos:R:3:forces:R:3 energy=106.33820466495881 pbc="F F F"
Sb       0.00000000       0.00000000       0.00000000       0.00000000       0.00000000    -226.46562195
Sb       0.00000000       0.00000000       0.94424242       0.00000000       0.00000000     226.46562195
2
Properties=species:S:1:pos:R:3:forces:R:3 energy=93.45049489196093 pbc="F F F"
Sb       0.00000000       0.00000000       0.00000000       0.00000000       0.00000000    -200.66255188
Sb       0.00000000       0.00000000       1.00303030       0.00000000       0.00000000     200.66255188
2
Properties=species:S:1:pos:R:3:forces:R:3 energy=83.62418676491889 pbc="F F F"
Sb       0.00000000       0.00000000       0.00000000       0.00000000       0.00000000    -135.74588013
Sb       0.00000000       0.00000000       1.06181818       0.00000000       0.00000000     135.74588013
2
Properties=species:S:1:pos:R:3:forces:R:3 energy=76.42054439161073 pbc="F F F"
Sb       0.00000000       0.00000000       0.00000000       0.00000000       0.00000000    -120.57221985
Sb       0.00000000       0.00000000       1.12060606       0.00000000       0.00000000     120.57221985
2
Properties=species:S:1:pos:R:3:forces:R:3 energy=68.6189105184383 pbc="F F F"
Sb       0.00000000       0.00000000       0.00000000       0.00000000       0.00000000    -145.50471497
Sb       0.00000000       0.00000000       1.17939394       0.00000000       0.00000000     145.50471497
2
Properties=species:S:1:pos:R:3:forces:R:3 energy=59.65007520695296 pbc="F F F"
Sb       0.00000000       0.00000000       0.00000000       0.00000000       0.00000000    -155.85958862
Sb       0.00000000       0.00000000       1.23818182       0.00000000       0.00000000     155.85958862
2
Properties=species:S:1:pos:R:3:forces:R:3 energy=50.719295986967786 pbc="F F F"
Sb       0.00000000       0.00000000       0.00000000       0.00000000       0.00000000    -144.74841309
Sb       0.00000000       0.00000000       1.29696970       0.00000000       0.00000000     144.74841309
2
Properties=species:S:1:pos:R:3:forces:R:3 energy=42.83749066777682 pbc="F F F"
Sb       0.00000000       0.00000000       0.00000000       0.00000000       0.00000000    -123.43141937
Sb       0.00000000       0.00000000       1.35575758       0.00000000       0.00000000     123.43141937
2
Properties=species:S:1:pos:R:3:forces:R:3 energy=36.069970852327224 pbc="F F F"
Sb       0.00000000       0.00000000       0.00000000       0.00000000       0.00000000    -108.37879944
Sb       0.00000000       0.00000000       1.41454545       0.00000000       0.00000000     108.37879944
2
Properties=species:S:1:pos:R:3:forces:R:3 energy=29.949665216492132 pbc="F F F"
Sb       0.00000000       0.00000000       0.00000000       0.00000000       0.00000000    -100.51480103
Sb       0.00000000       0.00000000       1.47333333       0.00000000       0.00000000     100.51480103
2
Properties=species:S:1:pos:R:3:forces:R:3 energy=24.236755396349764 pbc="F F F"
Sb       0.00000000       0.00000000       0.00000000       0.00000000       0.00000000     -93.56481171
Sb       0.00000000       0.00000000       1.53212121       0.00000000       0.00000000      93.56481171
2
Properties=species:S:1:pos:R:3:forces:R:3 energy=18.998101863307433 pbc="F F F"
Sb       0.00000000       0.00000000       0.00000000       0.00000000       0.00000000     -84.23781586
Sb       0.00000000       0.00000000       1.59090909       0.00000000       0.00000000      84.23781586
2
Properties=species:S:1:pos:R:3:forces:R:3 energy=14.367967960111313 pbc="F F F"
Sb       0.00000000       0.00000000       0.00000000       0.00000000       0.00000000     -73.11690521
Sb       0.00000000       0.00000000       1.64969697       0.00000000       0.00000000      73.11690521
2
Properties=species:S:1:pos:R:3:forces:R:3 energy=10.406753059024583 pbc="F F F"
Sb       0.00000000       0.00000000       0.00000000       0.00000000       0.00000000     -61.69965744
Sb       0.00000000       0.00000000       1.70848485       0.00000000       0.00000000      61.69965744
2
Properties=species:S:1:pos:R:3:forces:R:3 energy=7.098558848328377 pbc="F F F"
Sb       0.00000000       0.00000000       0.00000000       0.00000000       0.00000000     -51.03372955
Sb       0.00000000       0.00000000       1.76727273       0.00000000       0.00000000      51.03372955
2
Properties=species:S:1:pos:R:3:forces:R:3 energy=4.380201014351684 pbc="F F F"
Sb       0.00000000       0.00000000       0.00000000       0.00000000       0.00000000     -41.69094086
Sb       0.00000000       0.00000000       1.82606061       0.00000000       0.00000000      41.69094086
2
Properties=species:S:1:pos:R:3:forces:R:3 energy=2.1676830274187786 pbc="F F F"
Sb       0.00000000       0.00000000       0.00000000       0.00000000       0.00000000     -33.82036972
Sb       0.00000000       0.00000000       1.88484848       0.00000000       0.00000000      33.82036972
2
Properties=species:S:1:pos:R:3:forces:R:3 energy=0.37729715244531353 pbc="F F F"
Sb       0.00000000       0.00000000       0.00000000       0.00000000       0.00000000     -27.29700470
Sb       0.00000000       0.00000000       1.94363636       0.00000000       0.00000000      27.29700470
2
Properties=species:S:1:pos:R:3:forces:R:3 energy=-1.063927622773444 pbc="F F F"
Sb       0.00000000       0.00000000       0.00000000       0.00000000       0.00000000     -21.90401459
Sb       0.00000000       0.00000000       2.00242424       0.00000000       0.00000000      21.90401459
2
Properties=species:S:1:pos:R:3:forces:R:3 energy=-2.2160353731246776 pbc="F F F"
Sb       0.00000000       0.00000000       0.00000000       0.00000000       0.00000000     -17.42839622
Sb       0.00000000       0.00000000       2.06121212       0.00000000       0.00000000      17.42839622
2
Properties=species:S:1:pos:R:3:forces:R:3 energy=-3.1276091476439363 pbc="F F F"
Sb       0.00000000       0.00000000       0.00000000       0.00000000       0.00000000     -13.69580841
Sb       0.00000000       0.00000000       2.12000000       0.00000000       0.00000000      13.69580841
2
Properties=species:S:1:pos:R:3:forces:R:3 energy=-3.8382692310926516 pbc="F F F"
Sb       0.00000000       0.00000000       0.00000000       0.00000000       0.00000000     -10.57357121
Sb       0.00000000       0.00000000       2.17878788       0.00000000       0.00000000      10.57357121
2
Properties=species:S:1:pos:R:3:forces:R:3 energy=-4.380797341792242 pbc="F F F"
Sb       0.00000000       0.00000000       0.00000000       0.00000000       0.00000000      -7.96168518
Sb       0.00000000       0.00000000       2.23757576       0.00000000       0.00000000       7.96168518
2
Properties=species:S:1:pos:R:3:forces:R:3 energy=-4.78282168544218 pbc="F F F"
Sb       0.00000000       0.00000000       0.00000000       0.00000000       0.00000000      -5.78177452
Sb       0.00000000       0.00000000       2.29636364       0.00000000       0.00000000       5.78177452
2
Properties=species:S:1:pos:R:3:forces:R:3 energy=-5.0677923318627425 pbc="F F F"
Sb       0.00000000       0.00000000       0.00000000       0.00000000       0.00000000      -3.96970105
Sb       0.00000000       0.00000000       2.35515152       0.00000000       0.00000000       3.96970105
2
Properties=species:S:1:pos:R:3:forces:R:3 energy=-5.255719190189418 pbc="F F F"
Sb       0.00000000       0.00000000       0.00000000       0.00000000       0.00000000      -2.47207522
Sb       0.00000000       0.00000000       2.41393939       0.00000000       0.00000000       2.47207522
2
Properties=species:S:1:pos:R:3:forces:R:3 energy=-5.3637558706305475 pbc="F F F"
Sb       0.00000000       0.00000000       0.00000000       0.00000000       0.00000000      -1.24545884
Sb       0.00000000       0.00000000       2.47272727       0.00000000       0.00000000       1.24545884
2
Properties=species:S:1:pos:R:3:forces:R:3 energy=-5.406772823724553 pbc="F F F"
Sb       0.00000000       0.00000000       0.00000000       0.00000000       0.00000000      -0.25477108
Sb       0.00000000       0.00000000       2.53151515       0.00000000       0.00000000       0.25477108
2
Properties=species:S:1:pos:R:3:forces:R:3 energy=-5.39775129653163 pbc="F F F"
Sb       0.00000000       0.00000000       0.00000000       0.00000000       0.00000000       0.52966177
Sb       0.00000000       0.00000000       2.59030303       0.00000000       0.00000000      -0.52966177
2
Properties=species:S:1:pos:R:3:forces:R:3 energy=-5.348001190194256 pbc="F F F"
Sb       0.00000000       0.00000000       0.00000000       0.00000000       0.00000000       1.13528585
Sb       0.00000000       0.00000000       2.64909091       0.00000000       0.00000000      -1.13528585
2
Properties=species:S:1:pos:R:3:forces:R:3 energy=-5.267241727780292 pbc="F F F"
Sb       0.00000000       0.00000000       0.00000000       0.00000000       0.00000000       1.58916843
Sb       0.00000000       0.00000000       2.70787879       0.00000000       0.00000000      -1.58916843
2
Properties=species:S:1:pos:R:3:forces:R:3 energy=-5.163609045663657 pbc="F F F"
Sb       0.00000000       0.00000000       0.00000000       0.00000000       0.00000000       1.91767311
Sb       0.00000000       0.00000000       2.76666667       0.00000000       0.00000000      -1.91767311
2
Properties=species:S:1:pos:R:3:forces:R:3 energy=-5.0437511474752466 pbc="F F F"
Sb       0.00000000       0.00000000       0.00000000       0.00000000       0.00000000       2.14490461
Sb       0.00000000       0.00000000       2.82545455       0.00000000       0.00000000      -2.14490461
2
Properties=species:S:1:pos:R:3:forces:R:3 energy=-4.913002483523639 pbc="F F F"
Sb       0.00000000       0.00000000       0.00000000       0.00000000       0.00000000       2.29128122
Sb       0.00000000       0.00000000       2.88424242       0.00000000       0.00000000      -2.29128122
2
Properties=species:S:1:pos:R:3:forces:R:3 energy=-4.7756140967519185 pbc="F F F"
Sb       0.00000000       0.00000000       0.00000000       0.00000000       0.00000000       2.37311482
Sb       0.00000000       0.00000000       2.94303030       0.00000000       0.00000000      -2.37311482
2
Properties=species:S:1:pos:R:3:forces:R:3 energy=-4.634994639250633 pbc="F F F"
Sb       0.00000000       0.00000000       0.00000000       0.00000000       0.00000000       2.40312624
Sb       0.00000000       0.00000000       3.00181818       0.00000000       0.00000000      -2.40312624
2
Properties=species:S:1:pos:R:3:forces:R:3 energy=-4.493884629904779 pbc="F F F"
Sb       0.00000000       0.00000000       0.00000000       0.00000000       0.00000000       2.39127064
Sb       0.00000000       0.00000000       3.06060606       0.00000000       0.00000000      -2.39127064
2
Properties=species:S:1:pos:R:3:forces:R:3 energy=-4.354505984536802 pbc="F F F"
Sb       0.00000000       0.00000000       0.00000000       0.00000000       0.00000000       2.34541059
Sb       0.00000000       0.00000000       3.11939394       0.00000000       0.00000000      -2.34541059
2
Properties=species:S:1:pos:R:3:forces:R:3 energy=-4.218663623243131 pbc="F F F"
Sb       0.00000000       0.00000000       0.00000000       0.00000000       0.00000000       2.27184391
Sb       0.00000000       0.00000000       3.17818182       0.00000000       0.00000000      -2.27184391
2
Properties=species:S:1:pos:R:3:forces:R:3 energy=-4.087831254044872 pbc="F F F"
Sb       0.00000000       0.00000000       0.00000000       0.00000000       0.00000000       2.17586780
Sb       0.00000000       0.00000000       3.23696970       0.00000000       0.00000000      -2.17586780
2
Properties=species:S:1:pos:R:3:forces:R:3 energy=-3.9631768539157513 pbc="F F F"
Sb       0.00000000       0.00000000       0.00000000       0.00000000       0.00000000       2.06241488
Sb       0.00000000       0.00000000       3.29575758       0.00000000       0.00000000      -2.06241488
2
Properties=species:S:1:pos:R:3:forces:R:3 energy=-3.8455869300060077 pbc="F F F"
Sb       0.00000000       0.00000000       0.00000000       0.00000000       0.00000000       1.93634093
Sb       0.00000000       0.00000000       3.35454545       0.00000000       0.00000000      -1.93634093
2
Properties=species:S:1:pos:R:3:forces:R:3 energy=-3.73567004440401 pbc="F F F"
Sb       0.00000000       0.00000000       0.00000000       0.00000000       0.00000000       1.80206788
Sb       0.00000000       0.00000000       3.41333333       0.00000000       0.00000000      -1.80206788
2
Properties=species:S:1:pos:R:3:forces:R:3 energy=-3.633797023876841 pbc="F F F"
Sb       0.00000000       0.00000000       0.00000000       0.00000000       0.00000000       1.66322112
Sb       0.00000000       0.00000000       3.47212121       0.00000000       0.00000000      -1.66322112
2
Properties=species:S:1:pos:R:3:forces:R:3 energy=-3.540145961468688 pbc="F F F"
Sb       0.00000000       0.00000000       0.00000000       0.00000000       0.00000000       1.52288127
Sb       0.00000000       0.00000000       3.53090909       0.00000000       0.00000000      -1.52288127
2
Properties=species:S:1:pos:R:3:forces:R:3 energy=-3.454716909401361 pbc="F F F"
Sb       0.00000000       0.00000000       0.00000000       0.00000000       0.00000000       1.38387847
Sb       0.00000000       0.00000000       3.58969697       0.00000000       0.00000000      -1.38387847
2
Properties=species:S:1:pos:R:3:forces:R:3 energy=-3.37735783274713 pbc="F F F"
Sb       0.00000000       0.00000000       0.00000000       0.00000000       0.00000000       1.24875331
Sb       0.00000000       0.00000000       3.64848485       0.00000000       0.00000000      -1.24875331
2
Properties=species:S:1:pos:R:3:forces:R:3 energy=-3.307776769542842 pbc="F F F"
Sb       0.00000000       0.00000000       0.00000000       0.00000000       0.00000000       1.11958683
Sb       0.00000000       0.00000000       3.70727273       0.00000000       0.00000000      -1.11958683
2
Properties=species:S:1:pos:R:3:forces:R:3 energy=-3.2455741603296464 pbc="F F F"
Sb       0.00000000       0.00000000       0.00000000       0.00000000       0.00000000       0.99789417
Sb       0.00000000       0.00000000       3.76606061       0.00000000       0.00000000      -0.99789417
2
Properties=species:S:1:pos:R:3:forces:R:3 energy=-3.190282719412665 pbc="F F F"
Sb       0.00000000       0.00000000       0.00000000       0.00000000       0.00000000       0.88464963
Sb       0.00000000       0.00000000       3.82484848       0.00000000       0.00000000      -0.88464963
2
Properties=species:S:1:pos:R:3:forces:R:3 energy=-3.1413866222290703 pbc="F F F"
Sb       0.00000000       0.00000000       0.00000000       0.00000000       0.00000000       0.78030407
Sb       0.00000000       0.00000000       3.88363636       0.00000000       0.00000000      -0.78030407
2
Properties=species:S:1:pos:R:3:forces:R:3 energy=-3.0983617219003707 pbc="F F F"
Sb       0.00000000       0.00000000       0.00000000       0.00000000       0.00000000       0.68492383
Sb       0.00000000       0.00000000       3.94242424       0.00000000       0.00000000      -0.68492383
2
Properties=species:S:1:pos:R:3:forces:R:3 energy=-3.0606854557788483 pbc="F F F"
Sb       0.00000000       0.00000000       0.00000000       0.00000000       0.00000000       0.59828711
Sb       0.00000000       0.00000000       4.00121212       0.00000000       0.00000000      -0.59828711
2
Properties=species:S:1:pos:R:3:forces:R:3 energy=-3.027854137466223 pbc="F F F"
Sb       0.00000000       0.00000000       0.00000000       0.00000000       0.00000000       0.51999843
Sb       0.00000000       0.00000000       4.06000000       0.00000000       0.00000000      -0.51999843
2
Properties=species:S:1:pos:R:3:forces:R:3 energy=-2.9993919018461406 pbc="F F F"
Sb       0.00000000       0.00000000       0.00000000       0.00000000       0.00000000       0.44958851
Sb       0.00000000       0.00000000       4.11878788       0.00000000       0.00000000      -0.44958851
2
Properties=species:S:1:pos:R:3:forces:R:3 energy=-2.9748485489815795 pbc="F F F"
Sb       0.00000000       0.00000000       0.00000000       0.00000000       0.00000000       0.38656712
Sb       0.00000000       0.00000000       4.17757576       0.00000000       0.00000000      -0.38656712
2
Properties=species:S:1:pos:R:3:forces:R:3 energy=-2.953804703792391 pbc="F F F"
Sb       0.00000000       0.00000000       0.00000000       0.00000000       0.00000000       0.33047009
Sb       0.00000000       0.00000000       4.23636364       0.00000000       0.00000000      -0.33047009
2
Properties=species:S:1:pos:R:3:forces:R:3 energy=-2.935865661521752 pbc="F F F"
Sb       0.00000000       0.00000000       0.00000000       0.00000000       0.00000000       0.28086689
Sb       0.00000000       0.00000000       4.29515152       0.00000000       0.00000000      -0.28086689
2
Properties=species:S:1:pos:R:3:forces:R:3 energy=-2.92066229072533 pbc="F F F"
Sb       0.00000000       0.00000000       0.00000000       0.00000000       0.00000000       0.23736635
Sb       0.00000000       0.00000000       4.35393939       0.00000000       0.00000000      -0.23736635
2
Properties=species:S:1:pos:R:3:forces:R:3 energy=-2.9078454577771193 pbc="F F F"
Sb       0.00000000       0.00000000       0.00000000       0.00000000       0.00000000       0.19958481
Sb       0.00000000       0.00000000       4.41272727       0.00000000       0.00000000      -0.19958481
2
Properties=species:S:1:pos:R:3:forces:R:3 energy=-2.897091221393026 pbc="F F F"
Sb       0.00000000       0.00000000       0.00000000       0.00000000       0.00000000       0.16713969
Sb       0.00000000       0.00000000       4.47151515       0.00000000       0.00000000      -0.16713969
2
Properties=species:S:1:pos:R:3:forces:R:3 energy=-2.8880973680578776 pbc="F F F"
Sb       0.00000000       0.00000000       0.00000000       0.00000000       0.00000000       0.13961871
Sb       0.00000000       0.00000000       4.53030303       0.00000000       0.00000000      -0.13961871
2
Properties=species:S:1:pos:R:3:forces:R:3 energy=-2.880588091697982 pbc="F F F"
Sb       0.00000000       0.00000000       0.00000000       0.00000000       0.00000000       0.11656100
Sb       0.00000000       0.00000000       4.58909091       0.00000000       0.00000000      -0.11656100
2
Properties=species:S:1:pos:R:3:forces:R:3 energy=-2.8743151414245145 pbc="F F F"
Sb       0.00000000       0.00000000       0.00000000       0.00000000       0.00000000       0.09746180
Sb       0.00000000       0.00000000       4.64787879       0.00000000       0.00000000      -0.09746180
2
Properties=species:S:1:pos:R:3:forces:R:3 energy=-2.8690619356699014 pbc="F F F"
Sb       0.00000000       0.00000000       0.00000000       0.00000000       0.00000000       0.08177945
Sb       0.00000000       0.00000000       4.70666667       0.00000000       0.00000000      -0.08177945
2
Properties=species:S:1:pos:R:3:forces:R:3 energy=-2.8646435495165306 pbc="F F F"
Sb       0.00000000       0.00000000       0.00000000       0.00000000       0.00000000       0.06897389
Sb       0.00000000       0.00000000       4.76545455       0.00000000       0.00000000      -0.06897389
2
Properties=species:S:1:pos:R:3:forces:R:3 energy=-2.8609054497439472 pbc="F F F"
Sb       0.00000000       0.00000000       0.00000000       0.00000000       0.00000000       0.05854104
Sb       0.00000000       0.00000000       4.82424242       0.00000000       0.00000000      -0.05854104
2
Properties=species:S:1:pos:R:3:forces:R:3 energy=-2.857722252050803 pbc="F F F"
Sb       0.00000000       0.00000000       0.00000000       0.00000000       0.00000000       0.05006585
Sb       0.00000000       0.00000000       4.88303030       0.00000000       0.00000000      -0.05006585
2
Properties=species:S:1:pos:R:3:forces:R:3 energy=-2.854986898768045 pbc="F F F"
Sb       0.00000000       0.00000000       0.00000000       0.00000000       0.00000000       0.04324536
Sb       0.00000000       0.00000000       4.94181818       0.00000000       0.00000000      -0.04324536
2
Properties=species:S:1:pos:R:3:forces:R:3 energy=-2.8526083190226332 pbc="F F F"
Sb       0.00000000       0.00000000       0.00000000       0.00000000       0.00000000       0.03791489
Sb       0.00000000       0.00000000       5.00060606       0.00000000       0.00000000      -0.03791489
2
Properties=species:S:1:pos:R:3:forces:R:3 energy=-2.8505009256487712 pbc="F F F"
Sb       0.00000000       0.00000000       0.00000000       0.00000000       0.00000000       0.03401631
Sb       0.00000000       0.00000000       5.05939394       0.00000000       0.00000000      -0.03401631
2
Properties=species:S:1:pos:R:3:forces:R:3 energy=-2.848580756141132 pbc="F F F"
Sb       0.00000000       0.00000000       0.00000000       0.00000000       0.00000000       0.03155763
Sb       0.00000000       0.00000000       5.11818182       0.00000000       0.00000000      -0.03155763
2
Properties=species:S:1:pos:R:3:forces:R:3 energy=-2.8467621886477263 pbc="F F F"
Sb       0.00000000       0.00000000       0.00000000       0.00000000       0.00000000       0.03054393
Sb       0.00000000       0.00000000       5.17696970       0.00000000       0.00000000      -0.03054393
2
Properties=species:S:1:pos:R:3:forces:R:3 energy=-2.844961317843875 pbc="F F F"
Sb       0.00000000       0.00000000       0.00000000       0.00000000       0.00000000       0.03096262
Sb       0.00000000       0.00000000       5.23575758       0.00000000       0.00000000      -0.03096262
2
Properties=species:S:1:pos:R:3:forces:R:3 energy=-2.8430940285766444 pbc="F F F"
Sb       0.00000000       0.00000000       0.00000000       0.00000000       0.00000000       0.03279876
Sb       0.00000000       0.00000000       5.29454545       0.00000000       0.00000000      -0.03279876
2
Properties=species:S:1:pos:R:3:forces:R:3 energy=-2.8410817971062987 pbc="F F F"
Sb       0.00000000       0.00000000       0.00000000       0.00000000       0.00000000       0.03577367
Sb       0.00000000       0.00000000       5.35333333       0.00000000       0.00000000      -0.03577367
2
Properties=species:S:1:pos:R:3:forces:R:3 energy=-2.8388998991766092 pbc="F F F"
Sb       0.00000000       0.00000000       0.00000000       0.00000000       0.00000000       0.03802798
Sb       0.00000000       0.00000000       5.41212121       0.00000000       0.00000000      -0.03802798
2
Properties=species:S:1:pos:R:3:forces:R:3 energy=-2.83670804280536 pbc="F F F"
Sb       0.00000000       0.00000000       0.00000000       0.00000000       0.00000000       0.03542382
Sb       0.00000000       0.00000000       5.47090909       0.00000000       0.00000000      -0.03542382
2
Properties=species:S:1:pos:R:3:forces:R:3 energy=-2.8348368797956454 pbc="F F F"
Sb       0.00000000       0.00000000       0.00000000       0.00000000       0.00000000       0.02798171
Sb       0.00000000       0.00000000       5.52969697       0.00000000       0.00000000      -0.02798171
2
Properties=species:S:1:pos:R:3:forces:R:3 energy=-2.833367703083272 pbc="F F F"
Sb       0.00000000       0.00000000       0.00000000       0.00000000       0.00000000       0.02275338
Sb       0.00000000       0.00000000       5.58848485       0.00000000       0.00000000      -0.02275338
2
Properties=species:S:1:pos:R:3:forces:R:3 energy=-2.832109100722936 pbc="F F F"
Sb       0.00000000       0.00000000       0.00000000       0.00000000       0.00000000       0.01997849
Sb       0.00000000       0.00000000       5.64727273       0.00000000       0.00000000      -0.01997849
2
Properties=species:S:1:pos:R:3:forces:R:3 energy=-2.8311036278389943 pbc="F F F"
Sb       0.00000000       0.00000000       0.00000000       0.00000000       0.00000000       0.01302134
Sb       0.00000000       0.00000000       5.70606061       0.00000000       0.00000000      -0.01302134
2
Properties=species:S:1:pos:R:3:forces:R:3 energy=-2.8307086930882654 pbc="F F F"
Sb       0.00000000       0.00000000       0.00000000       0.00000000       0.00000000       0.00004339
Sb       0.00000000       0.00000000       5.76484848       0.00000000       0.00000000      -0.00004339
2
Properties=species:S:1:pos:R:3:forces:R:3 energy=-2.8309843092523637 pbc="F F F"
Sb       0.00000000       0.00000000       0.00000000       0.00000000       0.00000000      -0.00735327
Sb       0.00000000       0.00000000       5.82363636       0.00000000       0.00000000       0.00735327
2
Properties=species:S:1:pos:R:3:forces:R:3 energy=-2.8313180663564603 pbc="F F F"
Sb       0.00000000       0.00000000       0.00000000       0.00000000       0.00000000      -0.00261907
Sb       0.00000000       0.00000000       5.88242424       0.00000000       0.00000000       0.00261907
2
Properties=species:S:1:pos:R:3:forces:R:3 energy=-2.831231056158736 pbc="F F F"
Sb       0.00000000       0.00000000       0.00000000       0.00000000       0.00000000       0.00533372
Sb       0.00000000       0.00000000       5.94121212       0.00000000       0.00000000      -0.00533372
2
Properties=species:S:1:pos:R:3:forces:R:3 energy=-2.830792932762063 pbc="F F F"
Sb       0.00000000       0.00000000       0.00000000       0.00000000       0.00000000       0.00839876
Sb       0.00000000       0.00000000       6.00000000       0.00000000       0.00000000      -0.00839876
