2
Properties=species:S:1:pos:R:3:forces:R:3 energy=8286.004355826073 pbc="F F F"
Sb       0.00000000       0.00000000       0.00000000       0.00000000       0.00000000 -148240.18750000
Sb       0.00000000       0.00000000       0.18000000       0.00000000       0.00000000  148240.18750000
2
Properties=species:S:1:pos:R:3:forces:R:3 energy=3064.149375357323 pbc="F F F"
Sb       0.00000000       0.00000000       0.00000000       0.00000000       0.00000000  -49551.36718750
Sb       0.00000000       0.00000000       0.23878788       0.00000000       0.00000000   49551.36718750
2
Properties=species:S:1:pos:R:3:forces:R:3 energy=1239.6653665682604 pbc="F F F"
Sb       0.00000000       0.00000000       0.00000000       0.00000000       0.00000000  -17678.96679688
Sb       0.00000000       0.00000000       0.29757576       0.00000000       0.00000000   17678.96679688
2
Properties=species:S:1:pos:R:3:forces:R:3 energy=630.6440042699087 pbc="F F F"
Sb       0.00000000       0.00000000       0.00000000       0.00000000       0.00000000   -4825.10546875
Sb       0.00000000       0.00000000       0.35636364       0.00000000       0.00000000    4825.10546875
2
Properties=species:S:1:pos:R:3:forces:R:3 energy=524.6946634495962 pbc="F F F"
Sb       0.00000000       0.00000000       0.00000000       0.00000000       0.00000000     268.40679932
Sb       0.00000000       0.00000000       0.41515152       0.00000000       0.00000000    -268.40679932
2
Properties=species:S:1:pos:R:3:forces:R:3 energy=560.3423685467282 pbc="F F F"
Sb       0.00000000       0.00000000       0.00000000       0.00000000       0.00000000    -319.55679321
Sb       0.00000000       0.00000000       0.47393939       0.00000000       0.00000000     319.55679321
2
Properties=species:S:1:pos:R:3:forces:R:3 energy=511.51903483817193 pbc="F F F"
Sb       0.00000000       0.00000000       0.00000000       0.00000000       0.00000000   -1485.42492676
Sb       0.00000000       0.00000000       0.53272727       0.00000000       0.00000000    1485.42492676
2
Properties=species:S:1:pos:R:3:forces:R:3 energy=324.9565348888571 pbc="F F F"
Sb       0.00000000       0.00000000       0.00000000       0.00000000       0.00000000   -3601.45336914
Sb       0.00000000       0.00000000       0.59151515       0.00000000       0.00000000    3601.45336914
2
Properties=species:S:1:pos:R:3:forces:R:3 energy=192.0633159707442 pbc="F F F"
Sb       0.00000000       0.00000000       0.00000000       0.00000000       0.00000000   -1328.96862793
Sb       0.00000000       0.00000000       0.65030303       0.00000000       0.00000000    1328.96862793
2
Properties=species:S:1:pos:R:3:forces:R:3 energy=155.92534613308962 pbc="F F F"
Sb       0.00000000       0.00000000       0.00000000       0.00000000       0.00000000    -105.46975708
Sb       0.00000000       0.00000000       0.70909091       0.00000000       0.00000000     105.46975708
2
Properties=species:S:1:pos:R:3:forces:R:3 energy=146.95717616347898 pbc="F F F"
Sb       0.00000000       0.00000000       0.00000000       0.00000000       0.00000000    -219.67835999
Sb       0.00000000       0.00000000       0.76787879       0.00000000       0.00000000     219.67835999
2
Properties=species:S:1:pos:R:3:forces:R:3 energy=132.83095574545797 pbc="F F F"
Sb       0.00000000       0.00000000       0.00000000       0.00000000       0.00000000    -247.42126465
Sb       0.00000000       0.00000000       0.82666667       0.00000000       0.00000000     247.42126465
2
Properties=species:S:1:pos:R:3:forces:R:3 energy=119.36104648930609 pbc="F F F"
Sb       0.00000000       0.00000000       0.00000000       0.00000000       0.00000000    -217.92027283
Sb       0.00000000       0.00000000       0.88545455       0.00000000       0.00000000     217.92027283
2
Properties=species:S:1:pos:R:3:forces:R:3 energy=106.33814362980256 pbc="F F F"
Sb       0.00000000       0.00000000       0.00000000       0.00000000       0.00000000    -226.46566772
Sb       0.00000000       0.00000000       0.94424242       0.00000000       0.00000000     226.46566772
2
Properties=species:S:1:pos:R:3:forces:R:3 energy=93.4504643743828 pbc="F F F"
Sb       0.00000000       0.00000000       0.00000000       0.00000000       0.00000000    -200.66230774
Sb       0.00000000       0.00000000       1.00303030       0.00000000       0.00000000     200.66230774
2
Properties=species:S:1:pos:R:3:forces:R:3 energy=83.62420965310248 pbc="F F F"
Sb       0.00000000       0.00000000       0.00000000       0.00000000       0.00000000    -135.74636841
Sb       0.00000000       0.00000000       1.06181818       0.00000000       0.00000000     135.74636841
2
Properties=species:S:1:pos:R:3:forces:R:3 energy=76.42049098584901 pbc="F F F"
Sb       0.00000000       0.00000000       0.00000000       0.00000000       0.00000000    -120.57196045
Sb       0.00000000       0.00000000       1.12060606       0.00000000       0.00000000     120.57196045
2
Properties=species:S:1:pos:R:3:forces:R:3 energy=68.6188876302547 pbc="F F F"
Sb       0.00000000       0.00000000       0.00000000       0.00000000       0.00000000    -145.50463867
Sb       0.00000000       0.00000000       1.17939394       0.00000000       0.00000000     145.50463867
2
Properties=species:S:1:pos:R:3:forces:R:3 energy=59.65007902165023 pbc="F F F"
Sb       0.00000000       0.00000000       0.00000000       0.00000000       0.00000000    -155.85961914
Sb       0.00000000       0.00000000       1.23818182       0.00000000       0.00000000     155.85961914
2
Properties=species:S:1:pos:R:3:forces:R:3 energy=50.71930743105958 pbc="F F F"
Sb       0.00000000       0.00000000       0.00000000       0.00000000       0.00000000    -144.74842834
Sb       0.00000000       0.00000000       1.29696970       0.00000000       0.00000000     144.74842834
2
Properties=species:S:1:pos:R:3:forces:R:3 energy=42.837502111868616 pbc="F F F"
Sb       0.00000000       0.00000000       0.00000000       0.00000000       0.00000000    -123.43145752
Sb       0.00000000       0.00000000       1.35575758       0.00000000       0.00000000     123.43145752
2
Properties=species:S:1:pos:R:3:forces:R:3 energy=36.06994796414363 pbc="F F F"
Sb       0.00000000       0.00000000       0.00000000       0.00000000       0.00000000    -108.37876892
Sb       0.00000000       0.00000000       1.41454545       0.00000000       0.00000000     108.37876892
2
Properties=species:S:1:pos:R:3:forces:R:3 energy=29.949665216492132 pbc="F F F"
Sb       0.00000000       0.00000000       0.00000000       0.00000000       0.00000000    -100.51480865
Sb       0.00000000       0.00000000       1.47333333       0.00000000       0.00000000     100.51480865
2
Properties=species:S:1:pos:R:3:forces:R:3 energy=24.236774469836092 pbc="F F F"
Sb       0.00000000       0.00000000       0.00000000       0.00000000       0.00000000     -93.56475830
Sb       0.00000000       0.00000000       1.53212121       0.00000000       0.00000000      93.56475830
2
Properties=species:S:1:pos:R:3:forces:R:3 energy=18.998103770656066 pbc="F F F"
Sb       0.00000000       0.00000000       0.00000000       0.00000000       0.00000000     -84.23786926
Sb       0.00000000       0.00000000       1.59090909       0.00000000       0.00000000      84.23786926
2
Properties=species:S:1:pos:R:3:forces:R:3 energy=14.36796605276268 pbc="F F F"
Sb       0.00000000       0.00000000       0.00000000       0.00000000       0.00000000     -73.11689758
Sb       0.00000000       0.00000000       1.64969697       0.00000000       0.00000000      73.11689758
2
Properties=species:S:1:pos:R:3:forces:R:3 energy=10.406750198001633 pbc="F F F"
Sb       0.00000000       0.00000000       0.00000000       0.00000000       0.00000000     -61.69965363
Sb       0.00000000       0.00000000       1.70848485       0.00000000       0.00000000      61.69965363
2
Properties=species:S:1:pos:R:3:forces:R:3 energy=7.09856075567701 pbc="F F F"
Sb       0.00000000       0.00000000       0.00000000       0.00000000       0.00000000     -51.03374863
Sb       0.00000000       0.00000000       1.76727273       0.00000000       0.00000000      51.03374863
2
Properties=species:S:1:pos:R:3:forces:R:3 energy=4.380201961690356 pbc="F F F"
Sb       0.00000000       0.00000000       0.00000000       0.00000000       0.00000000     -41.69092941
Sb       0.00000000       0.00000000       1.82606061       0.00000000       0.00000000      41.69092941
2
Properties=species:S:1:pos:R:3:forces:R:3 energy=2.167683981093095 pbc="F F F"
Sb       0.00000000       0.00000000       0.00000000       0.00000000       0.00000000     -33.82038879
Sb       0.00000000       0.00000000       1.88484848       0.00000000       0.00000000      33.82038879
2
Properties=species:S:1:pos:R:3:forces:R:3 energy=0.37729667560815533 pbc="F F F"
Sb       0.00000000       0.00000000       0.00000000       0.00000000       0.00000000     -27.29700279
Sb       0.00000000       0.00000000       1.94363636       0.00000000       0.00000000      27.29700279
2
Properties=species:S:1:pos:R:3:forces:R:3 energy=-1.0639259538433903 pbc="F F F"
Sb       0.00000000       0.00000000       0.00000000       0.00000000       0.00000000     -21.90400505
Sb       0.00000000       0.00000000       2.00242424       0.00000000       0.00000000      21.90400505
2
Properties=species:S:1:pos:R:3:forces:R:3 energy=-2.2160332273574657 pbc="F F F"
Sb       0.00000000       0.00000000       0.00000000       0.00000000       0.00000000     -17.42839622
Sb       0.00000000       0.00000000       2.06121212       0.00000000       0.00000000      17.42839622
2
Properties=species:S:1:pos:R:3:forces:R:3 energy=-3.1276077171324617 pbc="F F F"
Sb       0.00000000       0.00000000       0.00000000       0.00000000       0.00000000     -13.69580173
Sb       0.00000000       0.00000000       2.12000000       0.00000000       0.00000000      13.69580173
2
Properties=species:S:1:pos:R:3:forces:R:3 energy=-3.8382680453354006 pbc="F F F"
Sb       0.00000000       0.00000000       0.00000000       0.00000000       0.00000000     -10.57357597
Sb       0.00000000       0.00000000       2.17878788       0.00000000       0.00000000      10.57357597
2
Properties=species:S:1:pos:R:3:forces:R:3 energy=-4.3807963881179255 pbc="F F F"
Sb       0.00000000       0.00000000       0.00000000       0.00000000       0.00000000      -7.96168995
Sb       0.00000000       0.00000000       2.23757576       0.00000000       0.00000000       7.96168995
2
Properties=species:S:1:pos:R:3:forces:R:3 energy=-4.782820731767863 pbc="F F F"
Sb       0.00000000       0.00000000       0.00000000       0.00000000       0.00000000      -5.78177595
Sb       0.00000000       0.00000000       2.29636364       0.00000000       0.00000000       5.78177595
2
Properties=species:S:1:pos:R:3:forces:R:3 energy=-5.06779184868994 pbc="F F F"
Sb       0.00000000       0.00000000       0.00000000       0.00000000       0.00000000      -3.96970177
Sb       0.00000000       0.00000000       2.35515152       0.00000000       0.00000000       3.96970177
2
Properties=species:S:1:pos:R:3:forces:R:3 energy=-5.25571871335226 pbc="F F F"
Sb       0.00000000       0.00000000       0.00000000       0.00000000       0.00000000      -2.47207427
Sb       0.00000000       0.00000000       2.41393939       0.00000000       0.00000000       2.47207427
2
Properties=species:S:1:pos:R:3:forces:R:3 energy=-5.363755393793389 pbc="F F F"
Sb       0.00000000       0.00000000       0.00000000       0.00000000       0.00000000      -1.24546003
Sb       0.00000000       0.00000000       2.47272727       0.00000000       0.00000000       1.24546003
2
Properties=species:S:1:pos:R:3:forces:R:3 energy=-5.406771870050236 pbc="F F F"
Sb       0.00000000       0.00000000       0.00000000       0.00000000       0.00000000      -0.25477031
Sb       0.00000000       0.00000000       2.53151515       0.00000000       0.00000000       0.25477031
2
Properties=species:S:1:pos:R:3:forces:R:3 energy=-5.397750819694472 pbc="F F F"
Sb       0.00000000       0.00000000       0.00000000       0.00000000       0.00000000       0.52966076
Sb       0.00000000       0.00000000       2.59030303       0.00000000       0.00000000      -0.52966076
2
Properties=species:S:1:pos:R:3:forces:R:3 energy=-5.348001190194256 pbc="F F F"
Sb       0.00000000       0.00000000       0.00000000       0.00000000       0.00000000       1.13528466
Sb       0.00000000       0.00000000       2.64909091       0.00000000       0.00000000      -1.13528466
2
Properties=species:S:1:pos:R:3:forces:R:3 energy=-5.267241734115936 pbc="F F F"
Sb       0.00000000       0.00000000       0.00000000       0.00000000       0.00000000       1.58917058
Sb       0.00000000       0.00000000       2.70787879       0.00000000       0.00000000      -1.58917058
2
Properties=species:S:1:pos:R:3:forces:R:3 energy=-5.163609522500815 pbc="F F F"
Sb       0.00000000       0.00000000       0.00000000       0.00000000       0.00000000       1.91767514
Sb       0.00000000       0.00000000       2.76666667       0.00000000       0.00000000      -1.91767514
2
Properties=species:S:1:pos:R:3:forces:R:3 energy=-5.0437511474752466 pbc="F F F"
Sb       0.00000000       0.00000000       0.00000000       0.00000000       0.00000000       2.14490414
Sb       0.00000000       0.00000000       2.82545455       0.00000000       0.00000000      -2.14490414
2
Properties=species:S:1:pos:R:3:forces:R:3 energy=-4.913002000350837 pbc="F F F"
Sb       0.00000000       0.00000000       0.00000000       0.00000000       0.00000000       2.29128098
Sb       0.00000000       0.00000000       2.88424242       0.00000000       0.00000000      -2.29128098
2
Properties=species:S:1:pos:R:3:forces:R:3 energy=-4.77561361991476 pbc="F F F"
Sb       0.00000000       0.00000000       0.00000000       0.00000000       0.00000000       2.37311482
Sb       0.00000000       0.00000000       2.94303030       0.00000000       0.00000000      -2.37311482
2
Properties=species:S:1:pos:R:3:forces:R:3 energy=-4.634994639250633 pbc="F F F"
Sb       0.00000000       0.00000000       0.00000000       0.00000000       0.00000000       2.40312481
Sb       0.00000000       0.00000000       3.00181818       0.00000000       0.00000000      -2.40312481
2
Properties=species:S:1:pos:R:3:forces:R:3 energy=-4.493885106741938 pbc="F F F"
Sb       0.00000000       0.00000000       0.00000000       0.00000000       0.00000000       2.39127064
Sb       0.00000000       0.00000000       3.06060606       0.00000000       0.00000000      -2.39127064
2
Properties=species:S:1:pos:R:3:forces:R:3 energy=-4.354505498196177 pbc="F F F"
Sb       0.00000000       0.00000000       0.00000000       0.00000000       0.00000000       2.34541154
Sb       0.00000000       0.00000000       3.11939394       0.00000000       0.00000000      -2.34541154
2
Properties=species:S:1:pos:R:3:forces:R:3 energy=-4.218662669568815 pbc="F F F"
Sb       0.00000000       0.00000000       0.00000000       0.00000000       0.00000000       2.27184343
Sb       0.00000000       0.00000000       3.17818182       0.00000000       0.00000000      -2.27184343
2
Properties=species:S:1:pos:R:3:forces:R:3 energy=-4.087830300370555 pbc="F F F"
Sb       0.00000000       0.00000000       0.00000000       0.00000000       0.00000000       2.17586780
Sb       0.00000000       0.00000000       3.23696970       0.00000000       0.00000000      -2.17586780
2
Properties=species:S:1:pos:R:3:forces:R:3 energy=-3.9631775691714886 pbc="F F F"
Sb       0.00000000       0.00000000       0.00000000       0.00000000       0.00000000       2.06241608
Sb       0.00000000       0.00000000       3.29575758       0.00000000       0.00000000      -2.06241608
2
Properties=species:S:1:pos:R:3:forces:R:3 energy=-3.8455869300060077 pbc="F F F"
Sb       0.00000000       0.00000000       0.00000000       0.00000000       0.00000000       1.93633914
Sb       0.00000000       0.00000000       3.35454545       0.00000000       0.00000000      -1.93633914
2
Properties=species:S:1:pos:R:3:forces:R:3 energy=-3.735669809153253 pbc="F F F"
Sb       0.00000000       0.00000000       0.00000000       0.00000000       0.00000000       1.80206788
Sb       0.00000000       0.00000000       3.41333333       0.00000000       0.00000000      -1.80206788
2
Properties=species:S:1:pos:R:3:forces:R:3 energy=-3.6337963086211036 pbc="F F F"
Sb       0.00000000       0.00000000       0.00000000       0.00000000       0.00000000       1.66322100
Sb       0.00000000       0.00000000       3.47212121       0.00000000       0.00000000      -1.66322100
2
Properties=species:S:1:pos:R:3:forces:R:3 energy=-3.5401452557164172 pbc="F F F"
Sb       0.00000000       0.00000000       0.00000000       0.00000000       0.00000000       1.52288067
Sb       0.00000000       0.00000000       3.53090909       0.00000000       0.00000000      -1.52288067
2
Properties=species:S:1:pos:R:3:forces:R:3 energy=-3.4547166646471372 pbc="F F F"
Sb       0.00000000       0.00000000       0.00000000       0.00000000       0.00000000       1.38387811
Sb       0.00000000       0.00000000       3.58969697       0.00000000       0.00000000      -1.38387811
2
Properties=species:S:1:pos:R:3:forces:R:3 energy=-3.3773573590777937 pbc="F F F"
Sb       0.00000000       0.00000000       0.00000000       0.00000000       0.00000000       1.24875283
Sb       0.00000000       0.00000000       3.64848485       0.00000000       0.00000000      -1.24875283
2
Properties=species:S:1:pos:R:3:forces:R:3 energy=-3.307777007961421 pbc="F F F"
Sb       0.00000000       0.00000000       0.00000000       0.00000000       0.00000000       1.11958683
Sb       0.00000000       0.00000000       3.70727273       0.00000000       0.00000000      -1.11958683
2
Properties=species:S:1:pos:R:3:forces:R:3 energy=-3.245574392412581 pbc="F F F"
Sb       0.00000000       0.00000000       0.00000000       0.00000000       0.00000000       0.99789363
Sb       0.00000000       0.00000000       3.76606061       0.00000000       0.00000000      -0.99789363
2
Properties=species:S:1:pos:R:3:forces:R:3 energy=-3.1902822425755066 pbc="F F F"
Sb       0.00000000       0.00000000       0.00000000       0.00000000       0.00000000       0.88464910
Sb       0.00000000       0.00000000       3.82484848       0.00000000       0.00000000      -0.88464910
2
Properties=species:S:1:pos:R:3:forces:R:3 energy=-3.1413863806426687 pbc="F F F"
Sb       0.00000000       0.00000000       0.00000000       0.00000000       0.00000000       0.78030312
Sb       0.00000000       0.00000000       3.88363636       0.00000000       0.00000000      -0.78030312
2
Properties=species:S:1:pos:R:3:forces:R:3 energy=-3.0983617219003707 pbc="F F F"
Sb       0.00000000       0.00000000       0.00000000       0.00000000       0.00000000       0.68492407
Sb       0.00000000       0.00000000       3.94242424       0.00000000       0.00000000      -0.68492407
2
Properties=species:S:1:pos:R:3:forces:R:3 energy=-3.0606854557788483 pbc="F F F"
Sb       0.00000000       0.00000000       0.00000000       0.00000000       0.00000000       0.59828752
Sb       0.00000000       0.00000000       4.00121212       0.00000000       0.00000000      -0.59828752
2
Properties=species:S:1:pos:R:3:forces:R:3 energy=-3.027854134298401 pbc="F F F"
Sb       0.00000000       0.00000000       0.00000000       0.00000000       0.00000000       0.51999837
Sb       0.00000000       0.00000000       4.06000000       0.00000000       0.00000000      -0.51999837
2
Properties=species:S:1:pos:R:3:forces:R:3 energy=-2.9993916634275615 pbc="F F F"
Sb       0.00000000       0.00000000       0.00000000       0.00000000       0.00000000       0.44958770
Sb       0.00000000       0.00000000       4.11878788       0.00000000       0.00000000      -0.44958770
2
Properties=species:S:1:pos:R:3:forces:R:3 energy=-2.974848790567981 pbc="F F F"
Sb       0.00000000       0.00000000       0.00000000       0.00000000       0.00000000       0.38656688
Sb       0.00000000       0.00000000       4.17757576       0.00000000       0.00000000      -0.38656688
2
Properties=species:S:1:pos:R:3:forces:R:3 energy=-2.9538047132958574 pbc="F F F"
Sb       0.00000000       0.00000000       0.00000000       0.00000000       0.00000000       0.33047003
Sb       0.00000000       0.00000000       4.23636364       0.00000000       0.00000000      -0.33047003
2
Properties=species:S:1:pos:R:3:forces:R:3 energy=-2.935865896772509 pbc="F F F"
Sb       0.00000000       0.00000000       0.00000000       0.00000000       0.00000000       0.28086776
Sb       0.00000000       0.00000000       4.29515152       0.00000000       0.00000000      -0.28086776
2
Properties=species:S:1:pos:R:3:forces:R:3 energy=-2.92066229072533 pbc="F F F"
Sb       0.00000000       0.00000000       0.00000000       0.00000000       0.00000000       0.23736629
Sb       0.00000000       0.00000000       4.35393939       0.00000000       0.00000000      -0.23736629
2
Properties=species:S:1:pos:R:3:forces:R:3 energy=-2.907845708866987 pbc="F F F"
Sb       0.00000000       0.00000000       0.00000000       0.00000000       0.00000000       0.19958486
Sb       0.00000000       0.00000000       4.41272727       0.00000000       0.00000000      -0.19958486
2
Properties=species:S:1:pos:R:3:forces:R:3 energy=-2.897091221393026 pbc="F F F"
Sb       0.00000000       0.00000000       0.00000000       0.00000000       0.00000000       0.16713987
Sb       0.00000000       0.00000000       4.47151515       0.00000000       0.00000000      -0.16713987
2
Properties=species:S:1:pos:R:3:forces:R:3 energy=-2.8880971296392985 pbc="F F F"
Sb       0.00000000       0.00000000       0.00000000       0.00000000       0.00000000       0.13961819
Sb       0.00000000       0.00000000       4.53030303       0.00000000       0.00000000      -0.13961819
2
Properties=species:S:1:pos:R:3:forces:R:3 energy=-2.8805878627828694 pbc="F F F"
Sb       0.00000000       0.00000000       0.00000000       0.00000000       0.00000000       0.11656138
Sb       0.00000000       0.00000000       4.58909091       0.00000000       0.00000000      -0.11656138
2
Properties=species:S:1:pos:R:3:forces:R:3 energy=-2.8743151414245145 pbc="F F F"
Sb       0.00000000       0.00000000       0.00000000       0.00000000       0.00000000       0.09746185
Sb       0.00000000       0.00000000       4.64787879       0.00000000       0.00000000      -0.09746185
2
Properties=species:S:1:pos:R:3:forces:R:3 energy=-2.8690619325020794 pbc="F F F"
Sb       0.00000000       0.00000000       0.00000000       0.00000000       0.00000000       0.08177906
Sb       0.00000000       0.00000000       4.70666667       0.00000000       0.00000000      -0.08177906
2
Properties=species:S:1:pos:R:3:forces:R:3 energy=-2.8646435495165306 pbc="F F F"
Sb       0.00000000       0.00000000       0.00000000       0.00000000       0.00000000       0.06897337
Sb       0.00000000       0.00000000       4.76545455       0.00000000       0.00000000      -0.06897337
2
Properties=species:S:1:pos:R:3:forces:R:3 energy=-2.8609056881625263 pbc="F F F"
Sb       0.00000000       0.00000000       0.00000000       0.00000000       0.00000000       0.05854155
Sb       0.00000000       0.00000000       4.82424242       0.00000000       0.00000000      -0.05854155
2
Properties=species:S:1:pos:R:3:forces:R:3 energy=-2.857722252050803 pbc="F F F"
Sb       0.00000000       0.00000000       0.00000000       0.00000000       0.00000000       0.05006591
Sb       0.00000000       0.00000000       4.88303030       0.00000000       0.00000000      -0.05006591
2
Properties=species:S:1:pos:R:3:forces:R:3 energy=-2.854986898768045 pbc="F F F"
Sb       0.00000000       0.00000000       0.00000000       0.00000000       0.00000000       0.04324546
Sb       0.00000000       0.00000000       4.94181818       0.00000000       0.00000000      -0.04324546
2
Properties=species:S:1:pos:R:3:forces:R:3 energy=-2.8526083190226332 pbc="F F F"
Sb       0.00000000       0.00000000       0.00000000       0.00000000       0.00000000       0.03791479
Sb       0.00000000       0.00000000       5.00060606       0.00000000       0.00000000      -0.03791479
2
Properties=species:S:1:pos:R:3:forces:R:3 energy=-2.8505009256487712 pbc="F F F"
Sb       0.00000000       0.00000000       0.00000000       0.00000000       0.00000000       0.03401640
Sb       0.00000000       0.00000000       5.05939394       0.00000000       0.00000000      -0.03401640
2
Properties=species:S:1:pos:R:3:forces:R:3 energy=-2.848580516138642 pbc="F F F"
Sb       0.00000000       0.00000000       0.00000000       0.00000000       0.00000000       0.03155734
Sb       0.00000000       0.00000000       5.11818182       0.00000000       0.00000000      -0.03155734
2
Properties=species:S:1:pos:R:3:forces:R:3 energy=-2.846762194983371 pbc="F F F"
Sb       0.00000000       0.00000000       0.00000000       0.00000000       0.00000000       0.03054406
Sb       0.00000000       0.00000000       5.17696970       0.00000000       0.00000000      -0.03054406
2
Properties=species:S:1:pos:R:3:forces:R:3 energy=-2.844961317843875 pbc="F F F"
Sb       0.00000000       0.00000000       0.00000000       0.00000000       0.00000000       0.03096252
Sb       0.00000000       0.00000000       5.23575758       0.00000000       0.00000000      -0.03096252
2
Properties=species:S:1:pos:R:3:forces:R:3 energy=-2.8430940254088224 pbc="F F F"
Sb       0.00000000       0.00000000       0.00000000       0.00000000       0.00000000       0.03279856
Sb       0.00000000       0.00000000       5.29454545       0.00000000       0.00000000      -0.03279856
2
Properties=species:S:1:pos:R:3:forces:R:3 energy=-2.8410818002741207 pbc="F F F"
Sb       0.00000000       0.00000000       0.00000000       0.00000000       0.00000000       0.03577415
Sb       0.00000000       0.00000000       5.35333333       0.00000000       0.00000000      -0.03577415
2
Properties=species:S:1:pos:R:3:forces:R:3 energy=-2.8388996591741193 pbc="F F F"
Sb       0.00000000       0.00000000       0.00000000       0.00000000       0.00000000       0.03802832
Sb       0.00000000       0.00000000       5.41212121       0.00000000       0.00000000      -0.03802832
2
Properties=species:S:1:pos:R:3:forces:R:3 energy=-2.836708039637538 pbc="F F F"
Sb       0.00000000       0.00000000       0.00000000       0.00000000       0.00000000       0.03542417
Sb       0.00000000       0.00000000       5.47090909       0.00000000       0.00000000      -0.03542417
2
Properties=species:S:1:pos:R:3:forces:R:3 energy=-2.8348368845473786 pbc="F F F"
Sb       0.00000000       0.00000000       0.00000000       0.00000000       0.00000000       0.02798245
Sb       0.00000000       0.00000000       5.52969697       0.00000000       0.00000000      -0.02798245
2
Properties=species:S:1:pos:R:3:forces:R:3 energy=-2.833367703083272 pbc="F F F"
Sb       0.00000000       0.00000000       0.00000000       0.00000000       0.00000000       0.02275428
Sb       0.00000000       0.00000000       5.58848485       0.00000000       0.00000000      -0.02275428
2
Properties=species:S:1:pos:R:3:forces:R:3 energy=-2.832108623885778 pbc="F F F"
Sb       0.00000000       0.00000000       0.00000000       0.00000000       0.00000000       0.01997729
Sb       0.00000000       0.00000000       5.64727273       0.00000000       0.00000000      -0.01997729
2
Properties=species:S:1:pos:R:3:forces:R:3 energy=-2.8311036341746387 pbc="F F F"
Sb       0.00000000       0.00000000       0.00000000       0.00000000       0.00000000       0.01302152
Sb       0.00000000       0.00000000       5.70606061       0.00000000       0.00000000      -0.01302152
2
Properties=species:S:1:pos:R:3:forces:R:3 energy=-2.83070869229631 pbc="F F F"
Sb       0.00000000       0.00000000       0.00000000       0.00000000       0.00000000       0.00004368
Sb       0.00000000       0.00000000       5.76484848       0.00000000       0.00000000      -0.00004368
2
Properties=species:S:1:pos:R:3:forces:R:3 energy=-2.830983115575557 pbc="F F F"
Sb       0.00000000       0.00000000       0.00000000       0.00000000       0.00000000      -0.00733885
Sb       0.00000000       0.00000000       5.82363636       0.00000000       0.00000000       0.00733885
2
Properties=species:S:1:pos:R:3:forces:R:3 energy=-2.831318068732327 pbc="F F F"
Sb       0.00000000       0.00000000       0.00000000       0.00000000       0.00000000      -0.00262391
Sb       0.00000000       0.00000000       5.88242424       0.00000000       0.00000000       0.00262391
2
Properties=species:S:1:pos:R:3:forces:R:3 energy=-2.831231054574825 pbc="F F F"
Sb       0.00000000       0.00000000       0.00000000       0.00000000       0.00000000       0.00533223
Sb       0.00000000       0.00000000       5.94121212       0.00000000       0.00000000      -0.00533223
2
Properties=species:S:1:pos:R:3:forces:R:3 energy=-2.8307929319701075 pbc="F F F"
Sb       0.00000000       0.00000000       0.00000000       0.00000000       0.00000000       0.00839876
Sb       0.00000000       0.00000000       6.00000000       0.00000000       0.00000000      -0.00839876
