2
Properties=species:S:1:pos:R:3:forces:R:3 energy=10622.760728210771 pbc="F F F"
Sc       0.00000000       0.00000000       0.00000000       0.00000000       0.00000000 -228170.95312500
Sc       0.00000000       0.00000000       0.10000000       0.00000000       0.00000000  228170.95312500
2
Properties=species:S:1:pos:R:3:forces:R:3 energy=3595.981187195145 pbc="F F F"
Sc       0.00000000       0.00000000       0.00000000       0.00000000       0.00000000  -55781.82031250
Sc       0.00000000       0.00000000       0.15959596       0.00000000       0.00000000   55781.82031250
2
Properties=species:S:1:pos:R:3:forces:R:3 energy=1601.1491559451451 pbc="F F F"
Sc       0.00000000       0.00000000       0.00000000       0.00000000       0.00000000  -18979.33984375
Sc       0.00000000       0.00000000       0.21919192       0.00000000       0.00000000   18979.33984375
2
Properties=species:S:1:pos:R:3:forces:R:3 energy=861.1397565310828 pbc="F F F"
Sc       0.00000000       0.00000000       0.00000000       0.00000000       0.00000000   -7789.67431641
Sc       0.00000000       0.00000000       0.27878788       0.00000000       0.00000000    7789.67431641
2
Properties=species:S:1:pos:R:3:forces:R:3 energy=541.2805646428872 pbc="F F F"
Sc       0.00000000       0.00000000       0.00000000       0.00000000       0.00000000   -3555.63720703
Sc       0.00000000       0.00000000       0.33838384       0.00000000       0.00000000    3555.63720703
2
Properties=species:S:1:pos:R:3:forces:R:3 energy=392.26060614679335 pbc="F F F"
Sc       0.00000000       0.00000000       0.00000000       0.00000000       0.00000000   -1676.35217285
Sc       0.00000000       0.00000000       0.39797980       0.00000000       0.00000000    1676.35217285
2
Properties=species:S:1:pos:R:3:forces:R:3 energy=322.94957100004683 pbc="F F F"
Sc       0.00000000       0.00000000       0.00000000       0.00000000       0.00000000    -754.07690430
Sc       0.00000000       0.00000000       0.45757576       0.00000000       0.00000000     754.07690430
2
Properties=species:S:1:pos:R:3:forces:R:3 energy=293.5585492873703 pbc="F F F"
Sc       0.00000000       0.00000000       0.00000000       0.00000000       0.00000000    -285.34008789
Sc       0.00000000       0.00000000       0.51717172       0.00000000       0.00000000     285.34008789
2
Properties=species:S:1:pos:R:3:forces:R:3 energy=283.8791059533379 pbc="F F F"
Sc       0.00000000       0.00000000       0.00000000       0.00000000       0.00000000     -75.08164978
Sc       0.00000000       0.00000000       0.57676768       0.00000000       0.00000000      75.08164978
2
Properties=species:S:1:pos:R:3:forces:R:3 energy=280.93617386878117 pbc="F F F"
Sc       0.00000000       0.00000000       0.00000000       0.00000000       0.00000000     -50.31674957
Sc       0.00000000       0.00000000       0.63636364       0.00000000       0.00000000      50.31674957
2
Properties=species:S:1:pos:R:3:forces:R:3 energy=275.1238875678558 pbc="F F F"
Sc       0.00000000       0.00000000       0.00000000       0.00000000       0.00000000    -164.35202026
Sc       0.00000000       0.00000000       0.69595960       0.00000000       0.00000000     164.35202026
2
Properties=species:S:1:pos:R:3:forces:R:3 energy=259.5233932907961 pbc="F F F"
Sc       0.00000000       0.00000000       0.00000000       0.00000000       0.00000000    -369.53558350
Sc       0.00000000       0.00000000       0.75555556       0.00000000       0.00000000     369.53558350
2
Properties=species:S:1:pos:R:3:forces:R:3 energy=230.57904226556943 pbc="F F F"
Sc       0.00000000       0.00000000       0.00000000       0.00000000       0.00000000    -598.64434814
Sc       0.00000000       0.00000000       0.81515152       0.00000000       0.00000000     598.64434814
2
Properties=species:S:1:pos:R:3:forces:R:3 energy=189.59269912253484 pbc="F F F"
Sc       0.00000000       0.00000000       0.00000000       0.00000000       0.00000000    -755.86871338
Sc       0.00000000       0.00000000       0.87474747       0.00000000       0.00000000     755.86871338
2
Properties=species:S:1:pos:R:3:forces:R:3 energy=143.95996325860494 pbc="F F F"
Sc       0.00000000       0.00000000       0.00000000       0.00000000       0.00000000    -740.09991455
Sc       0.00000000       0.00000000       0.93434343       0.00000000       0.00000000     740.09991455
2
Properties=species:S:1:pos:R:3:forces:R:3 energy=105.08831303480966 pbc="F F F"
Sc       0.00000000       0.00000000       0.00000000       0.00000000       0.00000000    -567.60565186
Sc       0.00000000       0.00000000       0.99393939       0.00000000       0.00000000     567.60565186
2
Properties=species:S:1:pos:R:3:forces:R:3 energy=78.00930367444757 pbc="F F F"
Sc       0.00000000       0.00000000       0.00000000       0.00000000       0.00000000    -358.52960205
Sc       0.00000000       0.00000000       1.05353535       0.00000000       0.00000000     358.52960205
2
Properties=species:S:1:pos:R:3:forces:R:3 energy=59.649761683079866 pbc="F F F"
Sc       0.00000000       0.00000000       0.00000000       0.00000000       0.00000000    -273.29992676
Sc       0.00000000       0.00000000       1.11313131       0.00000000       0.00000000     273.29992676
2
Properties=species:S:1:pos:R:3:forces:R:3 energy=44.57808847023637 pbc="F F F"
Sc       0.00000000       0.00000000       0.00000000       0.00000000       0.00000000    -233.44792175
Sc       0.00000000       0.00000000       1.17272727       0.00000000       0.00000000     233.44792175
2
Properties=species:S:1:pos:R:3:forces:R:3 energy=32.015940898589925 pbc="F F F"
Sc       0.00000000       0.00000000       0.00000000       0.00000000       0.00000000    -186.17398071
Sc       0.00000000       0.00000000       1.23232323       0.00000000       0.00000000     186.17398071
2
Properties=species:S:1:pos:R:3:forces:R:3 energy=22.399621226059043 pbc="F F F"
Sc       0.00000000       0.00000000       0.00000000       0.00000000       0.00000000    -138.42907715
Sc       0.00000000       0.00000000       1.29191919       0.00000000       0.00000000     138.42907715
2
Properties=species:S:1:pos:R:3:forces:R:3 energy=15.221800563724628 pbc="F F F"
Sc       0.00000000       0.00000000       0.00000000       0.00000000       0.00000000    -104.48523712
Sc       0.00000000       0.00000000       1.35151515       0.00000000       0.00000000     104.48523712
2
Properties=species:S:1:pos:R:3:forces:R:3 energy=9.803748051464163 pbc="F F F"
Sc       0.00000000       0.00000000       0.00000000       0.00000000       0.00000000     -78.06724548
Sc       0.00000000       0.00000000       1.41111111       0.00000000       0.00000000      78.06724548
2
Properties=species:S:1:pos:R:3:forces:R:3 energy=5.8158701607110945 pbc="F F F"
Sc       0.00000000       0.00000000       0.00000000       0.00000000       0.00000000     -56.85203934
Sc       0.00000000       0.00000000       1.47070707       0.00000000       0.00000000      56.85203934
2
Properties=species:S:1:pos:R:3:forces:R:3 energy=2.887938266622396 pbc="F F F"
Sc       0.00000000       0.00000000       0.00000000       0.00000000       0.00000000     -42.48460007
Sc       0.00000000       0.00000000       1.53030303       0.00000000       0.00000000      42.48460007
2
Properties=species:S:1:pos:R:3:forces:R:3 energy=0.6527950778336091 pbc="F F F"
Sc       0.00000000       0.00000000       0.00000000       0.00000000       0.00000000     -33.10665131
Sc       0.00000000       0.00000000       1.58989899       0.00000000       0.00000000      33.10665131
2
Properties=species:S:1:pos:R:3:forces:R:3 energy=-1.1057316754950919 pbc="F F F"
Sc       0.00000000       0.00000000       0.00000000       0.00000000       0.00000000     -26.18222427
Sc       0.00000000       0.00000000       1.64949495       0.00000000       0.00000000      26.18222427
2
Properties=species:S:1:pos:R:3:forces:R:3 energy=-2.4926963853764352 pbc="F F F"
Sc       0.00000000       0.00000000       0.00000000       0.00000000       0.00000000     -20.52844810
Sc       0.00000000       0.00000000       1.70909091       0.00000000       0.00000000      20.52844810
2
Properties=species:S:1:pos:R:3:forces:R:3 energy=-3.569664960327641 pbc="F F F"
Sc       0.00000000       0.00000000       0.00000000       0.00000000       0.00000000     -15.74481201
Sc       0.00000000       0.00000000       1.76868687       0.00000000       0.00000000      15.74481201
2
Properties=species:S:1:pos:R:3:forces:R:3 energy=-4.3842776424561665 pbc="F F F"
Sc       0.00000000       0.00000000       0.00000000       0.00000000       0.00000000     -11.71370029
Sc       0.00000000       0.00000000       1.82828283       0.00000000       0.00000000      11.71370029
2
Properties=species:S:1:pos:R:3:forces:R:3 energy=-4.979673708898787 pbc="F F F"
Sc       0.00000000       0.00000000       0.00000000       0.00000000       0.00000000      -8.37968349
Sc       0.00000000       0.00000000       1.88787879       0.00000000       0.00000000       8.37968349
2
Properties=species:S:1:pos:R:3:forces:R:3 energy=-5.3963081778767545 pbc="F F F"
Sc       0.00000000       0.00000000       0.00000000       0.00000000       0.00000000      -5.71363688
Sc       0.00000000       0.00000000       1.94747475       0.00000000       0.00000000       5.71363688
2
Properties=species:S:1:pos:R:3:forces:R:3 energy=-5.674035853174206 pbc="F F F"
Sc       0.00000000       0.00000000       0.00000000       0.00000000       0.00000000      -3.71795177
Sc       0.00000000       0.00000000       2.00707071       0.00000000       0.00000000       3.71795177
2
Properties=species:S:1:pos:R:3:forces:R:3 energy=-5.852231121138652 pbc="F F F"
Sc       0.00000000       0.00000000       0.00000000       0.00000000       0.00000000      -2.36248779
Sc       0.00000000       0.00000000       2.06666667       0.00000000       0.00000000       2.36248779
2
Properties=species:S:1:pos:R:3:forces:R:3 energy=-5.9663079360796045 pbc="F F F"
Sc       0.00000000       0.00000000       0.00000000       0.00000000       0.00000000      -1.54286826
Sc       0.00000000       0.00000000       2.12626263       0.00000000       0.00000000       1.54286826
2
Properties=species:S:1:pos:R:3:forces:R:3 energy=-6.043648194809871 pbc="F F F"
Sc       0.00000000       0.00000000       0.00000000       0.00000000       0.00000000      -1.10182357
Sc       0.00000000       0.00000000       2.18585859       0.00000000       0.00000000       1.10182357
2
Properties=species:S:1:pos:R:3:forces:R:3 energy=-6.101960151036608 pbc="F F F"
Sc       0.00000000       0.00000000       0.00000000       0.00000000       0.00000000      -0.87964272
Sc       0.00000000       0.00000000       2.24545455       0.00000000       0.00000000       0.87964272
2
Properties=species:S:1:pos:R:3:forces:R:3 energy=-6.150282968541812 pbc="F F F"
Sc       0.00000000       0.00000000       0.00000000       0.00000000       0.00000000      -0.74896628
Sc       0.00000000       0.00000000       2.30505051       0.00000000       0.00000000       0.74896628
2
Properties=species:S:1:pos:R:3:forces:R:3 energy=-6.191365772478519 pbc="F F F"
Sc       0.00000000       0.00000000       0.00000000       0.00000000       0.00000000      -0.62659180
Sc       0.00000000       0.00000000       2.36464646       0.00000000       0.00000000       0.62659180
2
Properties=species:S:1:pos:R:3:forces:R:3 energy=-6.224305835487991 pbc="F F F"
Sc       0.00000000       0.00000000       0.00000000       0.00000000       0.00000000      -0.47205082
Sc       0.00000000       0.00000000       2.42424242       0.00000000       0.00000000       0.47205082
2
Properties=species:S:1:pos:R:3:forces:R:3 energy=-6.246834918022926 pbc="F F F"
Sc       0.00000000       0.00000000       0.00000000       0.00000000       0.00000000      -0.27810654
Sc       0.00000000       0.00000000       2.48383838       0.00000000       0.00000000       0.27810654
2
Properties=species:S:1:pos:R:3:forces:R:3 energy=-6.2569202066129685 pbc="F F F"
Sc       0.00000000       0.00000000       0.00000000       0.00000000       0.00000000      -0.05751984
Sc       0.00000000       0.00000000       2.54343434       0.00000000       0.00000000       0.05751984
2
Properties=species:S:1:pos:R:3:forces:R:3 energy=-6.2535511087116165 pbc="F F F"
Sc       0.00000000       0.00000000       0.00000000       0.00000000       0.00000000       0.17019792
Sc       0.00000000       0.00000000       2.60303030       0.00000000       0.00000000      -0.17019792
2
Properties=species:S:1:pos:R:3:forces:R:3 energy=-6.236834679197537 pbc="F F F"
Sc       0.00000000       0.00000000       0.00000000       0.00000000       0.00000000       0.38804847
Sc       0.00000000       0.00000000       2.66262626       0.00000000       0.00000000      -0.38804847
2
Properties=species:S:1:pos:R:3:forces:R:3 energy=-6.207725038199447 pbc="F F F"
Sc       0.00000000       0.00000000       0.00000000       0.00000000       0.00000000       0.58464873
Sc       0.00000000       0.00000000       2.72222222       0.00000000       0.00000000      -0.58464873
2
Properties=species:S:1:pos:R:3:forces:R:3 energy=-6.167711106724154 pbc="F F F"
Sc       0.00000000       0.00000000       0.00000000       0.00000000       0.00000000       0.75295836
Sc       0.00000000       0.00000000       2.78181818       0.00000000       0.00000000      -0.75295836
2
Properties=species:S:1:pos:R:3:forces:R:3 energy=-6.118641867856476 pbc="F F F"
Sc       0.00000000       0.00000000       0.00000000       0.00000000       0.00000000       0.88785678
Sc       0.00000000       0.00000000       2.84141414       0.00000000       0.00000000      -0.88785678
2
Properties=species:S:1:pos:R:3:forces:R:3 energy=-6.062641984346534 pbc="F F F"
Sc       0.00000000       0.00000000       0.00000000       0.00000000       0.00000000       0.98474222
Sc       0.00000000       0.00000000       2.90101010       0.00000000       0.00000000      -0.98474222
2
Properties=species:S:1:pos:R:3:forces:R:3 energy=-6.002104647883054 pbc="F F F"
Sc       0.00000000       0.00000000       0.00000000       0.00000000       0.00000000       1.03958642
Sc       0.00000000       0.00000000       2.96060606       0.00000000       0.00000000      -1.03958642
2
Properties=species:S:1:pos:R:3:forces:R:3 energy=-5.9396044661124785 pbc="F F F"
Sc       0.00000000       0.00000000       0.00000000       0.00000000       0.00000000       1.05068815
Sc       0.00000000       0.00000000       3.02020202       0.00000000       0.00000000      -1.05068815
2
Properties=species:S:1:pos:R:3:forces:R:3 energy=-5.877645815474964 pbc="F F F"
Sc       0.00000000       0.00000000       0.00000000       0.00000000       0.00000000       1.02328932
Sc       0.00000000       0.00000000       3.07979798       0.00000000       0.00000000      -1.02328932
2
Properties=species:S:1:pos:R:3:forces:R:3 energy=-5.8180054032888 pbc="F F F"
Sc       0.00000000       0.00000000       0.00000000       0.00000000       0.00000000       0.97805262
Sc       0.00000000       0.00000000       3.13939394       0.00000000       0.00000000      -0.97805262
2
Properties=species:S:1:pos:R:3:forces:R:3 energy=-5.760669064033784 pbc="F F F"
Sc       0.00000000       0.00000000       0.00000000       0.00000000       0.00000000       0.95266116
Sc       0.00000000       0.00000000       3.19898990       0.00000000       0.00000000      -0.95266116
2
Properties=species:S:1:pos:R:3:forces:R:3 energy=-5.703515486872258 pbc="F F F"
Sc       0.00000000       0.00000000       0.00000000       0.00000000       0.00000000       0.97270012
Sc       0.00000000       0.00000000       3.25858586       0.00000000       0.00000000      -0.97270012
2
Properties=species:S:1:pos:R:3:forces:R:3 energy=-5.644217830033228 pbc="F F F"
Sc       0.00000000       0.00000000       0.00000000       0.00000000       0.00000000       1.01800144
Sc       0.00000000       0.00000000       3.31818182       0.00000000       0.00000000      -1.01800144
2
Properties=species:S:1:pos:R:3:forces:R:3 energy=-5.582443495855925 pbc="F F F"
Sc       0.00000000       0.00000000       0.00000000       0.00000000       0.00000000       1.05110848
Sc       0.00000000       0.00000000       3.37777778       0.00000000       0.00000000      -1.05110848
2
Properties=species:S:1:pos:R:3:forces:R:3 energy=-5.519431478150348 pbc="F F F"
Sc       0.00000000       0.00000000       0.00000000       0.00000000       0.00000000       1.05985570
Sc       0.00000000       0.00000000       3.43737374       0.00000000       0.00000000      -1.05985570
2
Properties=species:S:1:pos:R:3:forces:R:3 energy=-5.4564451280888 pbc="F F F"
Sc       0.00000000       0.00000000       0.00000000       0.00000000       0.00000000       1.05205393
Sc       0.00000000       0.00000000       3.49696970       0.00000000       0.00000000      -1.05205393
2
Properties=species:S:1:pos:R:3:forces:R:3 energy=-5.394182121080525 pbc="F F F"
Sc       0.00000000       0.00000000       0.00000000       0.00000000       0.00000000       1.03664589
Sc       0.00000000       0.00000000       3.55656566       0.00000000       0.00000000      -1.03664589
2
Properties=species:S:1:pos:R:3:forces:R:3 energy=-5.332952515949908 pbc="F F F"
Sc       0.00000000       0.00000000       0.00000000       0.00000000       0.00000000       1.01772594
Sc       0.00000000       0.00000000       3.61616162       0.00000000       0.00000000      -1.01772594
2
Properties=species:S:1:pos:R:3:forces:R:3 energy=-5.27293415326625 pbc="F F F"
Sc       0.00000000       0.00000000       0.00000000       0.00000000       0.00000000       0.99593771
Sc       0.00000000       0.00000000       3.67575758       0.00000000       0.00000000      -0.99593771
2
Properties=species:S:1:pos:R:3:forces:R:3 energy=-5.21431486585503 pbc="F F F"
Sc       0.00000000       0.00000000       0.00000000       0.00000000       0.00000000       0.97064471
Sc       0.00000000       0.00000000       3.73535354       0.00000000       0.00000000      -0.97064471
2
Properties=species:S:1:pos:R:3:forces:R:3 energy=-5.1573237137203005 pbc="F F F"
Sc       0.00000000       0.00000000       0.00000000       0.00000000       0.00000000       0.94121802
Sc       0.00000000       0.00000000       3.79494949       0.00000000       0.00000000      -0.94121802
2
Properties=species:S:1:pos:R:3:forces:R:3 energy=-5.10221194339169 pbc="F F F"
Sc       0.00000000       0.00000000       0.00000000       0.00000000       0.00000000       0.90760225
Sc       0.00000000       0.00000000       3.85454545       0.00000000       0.00000000      -0.90760225
2
Properties=species:S:1:pos:R:3:forces:R:3 energy=-5.049216602965594 pbc="F F F"
Sc       0.00000000       0.00000000       0.00000000       0.00000000       0.00000000       0.87040877
Sc       0.00000000       0.00000000       3.91414141       0.00000000       0.00000000      -0.87040877
2
Properties=species:S:1:pos:R:3:forces:R:3 energy=-4.998515612730795 pbc="F F F"
Sc       0.00000000       0.00000000       0.00000000       0.00000000       0.00000000       0.83074313
Sc       0.00000000       0.00000000       3.97373737       0.00000000       0.00000000      -0.83074313
2
Properties=species:S:1:pos:R:3:forces:R:3 energy=-4.950220942064587 pbc="F F F"
Sc       0.00000000       0.00000000       0.00000000       0.00000000       0.00000000       0.78992826
Sc       0.00000000       0.00000000       4.03333333       0.00000000       0.00000000      -0.78992826
2
Properties=species:S:1:pos:R:3:forces:R:3 energy=-4.904360106154435 pbc="F F F"
Sc       0.00000000       0.00000000       0.00000000       0.00000000       0.00000000       0.74922961
Sc       0.00000000       0.00000000       4.09292929       0.00000000       0.00000000      -0.74922961
2
Properties=species:S:1:pos:R:3:forces:R:3 energy=-4.8608955055813645 pbc="F F F"
Sc       0.00000000       0.00000000       0.00000000       0.00000000       0.00000000       0.70967978
Sc       0.00000000       0.00000000       4.15252525       0.00000000       0.00000000      -0.70967978
2
Properties=species:S:1:pos:R:3:forces:R:3 energy=-4.819735883083047 pbc="F F F"
Sc       0.00000000       0.00000000       0.00000000       0.00000000       0.00000000       0.67197990
Sc       0.00000000       0.00000000       4.21212121       0.00000000       0.00000000      -0.67197990
2
Properties=species:S:1:pos:R:3:forces:R:3 energy=-4.780755905555508 pbc="F F F"
Sc       0.00000000       0.00000000       0.00000000       0.00000000       0.00000000       0.63651794
Sc       0.00000000       0.00000000       4.27171717       0.00000000       0.00000000      -0.63651794
2
Properties=species:S:1:pos:R:3:forces:R:3 energy=-4.743820725166513 pbc="F F F"
Sc       0.00000000       0.00000000       0.00000000       0.00000000       0.00000000       0.60341442
Sc       0.00000000       0.00000000       4.33131313       0.00000000       0.00000000      -0.60341442
2
Properties=species:S:1:pos:R:3:forces:R:3 energy=-4.708788380884457 pbc="F F F"
Sc       0.00000000       0.00000000       0.00000000       0.00000000       0.00000000       0.57260394
Sc       0.00000000       0.00000000       4.39090909       0.00000000       0.00000000      -0.57260394
2
Properties=species:S:1:pos:R:3:forces:R:3 energy=-4.675528238400262 pbc="F F F"
Sc       0.00000000       0.00000000       0.00000000       0.00000000       0.00000000       0.54391152
Sc       0.00000000       0.00000000       4.45050505       0.00000000       0.00000000      -0.54391152
2
Properties=species:S:1:pos:R:3:forces:R:3 energy=-4.643921612684355 pbc="F F F"
Sc       0.00000000       0.00000000       0.00000000       0.00000000       0.00000000       0.51708388
Sc       0.00000000       0.00000000       4.51010101       0.00000000       0.00000000      -0.51708388
2
Properties=species:S:1:pos:R:3:forces:R:3 energy=-4.613864846085361 pbc="F F F"
Sc       0.00000000       0.00000000       0.00000000       0.00000000       0.00000000       0.49181226
Sc       0.00000000       0.00000000       4.56969697       0.00000000       0.00000000      -0.49181226
2
Properties=species:S:1:pos:R:3:forces:R:3 energy=-4.5852773765479204 pbc="F F F"
Sc       0.00000000       0.00000000       0.00000000       0.00000000       0.00000000       0.46772349
Sc       0.00000000       0.00000000       4.62929293       0.00000000       0.00000000      -0.46772349
2
Properties=species:S:1:pos:R:3:forces:R:3 energy=-4.558101897667639 pbc="F F F"
Sc       0.00000000       0.00000000       0.00000000       0.00000000       0.00000000       0.44437078
Sc       0.00000000       0.00000000       4.68888889       0.00000000       0.00000000      -0.44437078
2
Properties=species:S:1:pos:R:3:forces:R:3 energy=-4.532307569838306 pbc="F F F"
Sc       0.00000000       0.00000000       0.00000000       0.00000000       0.00000000       0.42125797
Sc       0.00000000       0.00000000       4.74848485       0.00000000       0.00000000      -0.42125797
2
Properties=species:S:1:pos:R:3:forces:R:3 energy=-4.507896303162164 pbc="F F F"
Sc       0.00000000       0.00000000       0.00000000       0.00000000       0.00000000       0.39790383
Sc       0.00000000       0.00000000       4.80808081       0.00000000       0.00000000      -0.39790383
2
Properties=species:S:1:pos:R:3:forces:R:3 energy=-4.4848919422507345 pbc="F F F"
Sc       0.00000000       0.00000000       0.00000000       0.00000000       0.00000000       0.37397683
Sc       0.00000000       0.00000000       4.86767677       0.00000000       0.00000000      -0.37397683
2
Properties=species:S:1:pos:R:3:forces:R:3 energy=-4.4633325941446085 pbc="F F F"
Sc       0.00000000       0.00000000       0.00000000       0.00000000       0.00000000       0.34946325
Sc       0.00000000       0.00000000       4.92727273       0.00000000       0.00000000      -0.34946325
2
Properties=species:S:1:pos:R:3:forces:R:3 energy=-4.443241503232933 pbc="F F F"
Sc       0.00000000       0.00000000       0.00000000       0.00000000       0.00000000       0.32481131
Sc       0.00000000       0.00000000       4.98686869       0.00000000       0.00000000      -0.32481131
2
Properties=species:S:1:pos:R:3:forces:R:3 energy=-4.4246035975336415 pbc="F F F"
Sc       0.00000000       0.00000000       0.00000000       0.00000000       0.00000000       0.30095261
Sc       0.00000000       0.00000000       5.04646465       0.00000000       0.00000000      -0.30095261
2
Properties=species:S:1:pos:R:3:forces:R:3 energy=-4.407332238469095 pbc="F F F"
Sc       0.00000000       0.00000000       0.00000000       0.00000000       0.00000000       0.27908665
Sc       0.00000000       0.00000000       5.10606061       0.00000000       0.00000000      -0.27908665
2
Properties=species:S:1:pos:R:3:forces:R:3 energy=-4.391277046665595 pbc="F F F"
Sc       0.00000000       0.00000000       0.00000000       0.00000000       0.00000000       0.26015770
Sc       0.00000000       0.00000000       5.16565657       0.00000000       0.00000000      -0.26015770
2
Properties=species:S:1:pos:R:3:forces:R:3 energy=-4.376264637516274 pbc="F F F"
Sc       0.00000000       0.00000000       0.00000000       0.00000000       0.00000000       0.24402849
Sc       0.00000000       0.00000000       5.22525253       0.00000000       0.00000000      -0.24402849
2
Properties=species:S:1:pos:R:3:forces:R:3 energy=-4.362177330990432 pbc="F F F"
Sc       0.00000000       0.00000000       0.00000000       0.00000000       0.00000000       0.22859260
Sc       0.00000000       0.00000000       5.28484848       0.00000000       0.00000000      -0.22859260
2
Properties=species:S:1:pos:R:3:forces:R:3 energy=-4.34907526946336 pbc="F F F"
Sc       0.00000000       0.00000000       0.00000000       0.00000000       0.00000000       0.21042855
Sc       0.00000000       0.00000000       5.34444444       0.00000000       0.00000000      -0.21042855
2
Properties=species:S:1:pos:R:3:forces:R:3 energy=-4.337146264283533 pbc="F F F"
Sc       0.00000000       0.00000000       0.00000000       0.00000000       0.00000000       0.19014829
Sc       0.00000000       0.00000000       5.40404040       0.00000000       0.00000000      -0.19014829
2
Properties=species:S:1:pos:R:3:forces:R:3 energy=-4.32624052941909 pbc="F F F"
Sc       0.00000000       0.00000000       0.00000000       0.00000000       0.00000000       0.17818211
Sc       0.00000000       0.00000000       5.46363636       0.00000000       0.00000000      -0.17818211
2
Properties=species:S:1:pos:R:3:forces:R:3 energy=-4.3156703940122805 pbc="F F F"
Sc       0.00000000       0.00000000       0.00000000       0.00000000       0.00000000       0.17715812
Sc       0.00000000       0.00000000       5.52323232       0.00000000       0.00000000      -0.17715812
2
Properties=species:S:1:pos:R:3:forces:R:3 energy=-4.305316741984531 pbc="F F F"
Sc       0.00000000       0.00000000       0.00000000       0.00000000       0.00000000       0.16748936
Sc       0.00000000       0.00000000       5.58282828       0.00000000       0.00000000      -0.16748936
2
Properties=species:S:1:pos:R:3:forces:R:3 energy=-4.2959579092983695 pbc="F F F"
Sc       0.00000000       0.00000000       0.00000000       0.00000000       0.00000000       0.14607747
Sc       0.00000000       0.00000000       5.64242424       0.00000000       0.00000000      -0.14607747
2
Properties=species:S:1:pos:R:3:forces:R:3 energy=-4.287699766474204 pbc="F F F"
Sc       0.00000000       0.00000000       0.00000000       0.00000000       0.00000000       0.13489673
Sc       0.00000000       0.00000000       5.70202020       0.00000000       0.00000000      -0.13489673
2
Properties=species:S:1:pos:R:3:forces:R:3 energy=-4.27933241774658 pbc="F F F"
Sc       0.00000000       0.00000000       0.00000000       0.00000000       0.00000000       0.14913361
Sc       0.00000000       0.00000000       5.76161616       0.00000000       0.00000000      -0.14913361
2
Properties=species:S:1:pos:R:3:forces:R:3 energy=-4.270160858110073 pbc="F F F"
Sc       0.00000000       0.00000000       0.00000000       0.00000000       0.00000000       0.15140866
Sc       0.00000000       0.00000000       5.82121212       0.00000000       0.00000000      -0.15140866
2
Properties=species:S:1:pos:R:3:forces:R:3 energy=-4.262300142617187 pbc="F F F"
Sc       0.00000000       0.00000000       0.00000000       0.00000000       0.00000000       0.10668707
Sc       0.00000000       0.00000000       5.88080808       0.00000000       0.00000000      -0.10668707
2
Properties=species:S:1:pos:R:3:forces:R:3 energy=-4.257667027082888 pbc="F F F"
Sc       0.00000000       0.00000000       0.00000000       0.00000000       0.00000000       0.05003934
Sc       0.00000000       0.00000000       5.94040404       0.00000000       0.00000000      -0.05003934
2
Properties=species:S:1:pos:R:3:forces:R:3 energy=-4.255652643124841 pbc="F F F"
Sc       0.00000000       0.00000000       0.00000000       0.00000000       0.00000000       0.02544594
Sc       0.00000000       0.00000000       6.00000000       0.00000000       0.00000000      -0.02544594
