2
Properties=species:S:1:pos:R:3:forces:R:3 energy=1659.2922287025117 pbc="F F F"
Si       0.00000000       0.00000000       0.00000000       0.00000000       0.00000000  -19595.64257812
Si       0.00000000       0.00000000       0.18000000       0.00000000       0.00000000   19595.64257812
2
Properties=species:S:1:pos:R:3:forces:R:3 energy=923.8674850501678 pbc="F F F"
Si       0.00000000       0.00000000       0.00000000       0.00000000       0.00000000   -7705.95751953
Si       0.00000000       0.00000000       0.23878788       0.00000000       0.00000000    7705.95751953
2
Properties=species:S:1:pos:R:3:forces:R:3 energy=606.6853561470857 pbc="F F F"
Si       0.00000000       0.00000000       0.00000000       0.00000000       0.00000000   -3745.70703125
Si       0.00000000       0.00000000       0.29757576       0.00000000       0.00000000    3745.70703125
2
Properties=species:S:1:pos:R:3:forces:R:3 energy=437.16384126084324 pbc="F F F"
Si       0.00000000       0.00000000       0.00000000       0.00000000       0.00000000   -2246.20239258
Si       0.00000000       0.00000000       0.35636364       0.00000000       0.00000000    2246.20239258
2
Properties=species:S:1:pos:R:3:forces:R:3 energy=326.5810776016395 pbc="F F F"
Si       0.00000000       0.00000000       0.00000000       0.00000000       0.00000000   -1589.50695801
Si       0.00000000       0.00000000       0.41515152       0.00000000       0.00000000    1589.50695801
2
Properties=species:S:1:pos:R:3:forces:R:3 energy=251.23821263991553 pbc="F F F"
Si       0.00000000       0.00000000       0.00000000       0.00000000       0.00000000    -972.89758301
Si       0.00000000       0.00000000       0.47393939       0.00000000       0.00000000     972.89758301
2
Properties=species:S:1:pos:R:3:forces:R:3 energy=201.57567606950693 pbc="F F F"
Si       0.00000000       0.00000000       0.00000000       0.00000000       0.00000000    -770.15759277
Si       0.00000000       0.00000000       0.53272727       0.00000000       0.00000000     770.15759277
2
Properties=species:S:1:pos:R:3:forces:R:3 energy=161.7688982041044 pbc="F F F"
Si       0.00000000       0.00000000       0.00000000       0.00000000       0.00000000    -573.61401367
Si       0.00000000       0.00000000       0.59151515       0.00000000       0.00000000     573.61401367
2
Properties=species:S:1:pos:R:3:forces:R:3 energy=133.9296496989333 pbc="F F F"
Si       0.00000000       0.00000000       0.00000000       0.00000000       0.00000000    -408.02291870
Si       0.00000000       0.00000000       0.65030303       0.00000000       0.00000000     408.02291870
2
Properties=species:S:1:pos:R:3:forces:R:3 energy=112.60937557715697 pbc="F F F"
Si       0.00000000       0.00000000       0.00000000       0.00000000       0.00000000    -323.33059692
Si       0.00000000       0.00000000       0.70909091       0.00000000       0.00000000     323.33059692
2
Properties=species:S:1:pos:R:3:forces:R:3 energy=95.40430543634757 pbc="F F F"
Si       0.00000000       0.00000000       0.00000000       0.00000000       0.00000000    -268.80850220
Si       0.00000000       0.00000000       0.76787879       0.00000000       0.00000000     268.80850220
2
Properties=species:S:1:pos:R:3:forces:R:3 energy=80.51564171343276 pbc="F F F"
Si       0.00000000       0.00000000       0.00000000       0.00000000       0.00000000    -237.46176147
Si       0.00000000       0.00000000       0.82666667       0.00000000       0.00000000     237.46176147
2
Properties=species:S:1:pos:R:3:forces:R:3 energy=67.64590674326536 pbc="F F F"
Si       0.00000000       0.00000000       0.00000000       0.00000000       0.00000000    -199.43760681
Si       0.00000000       0.00000000       0.88545455       0.00000000       0.00000000     199.43760681
2
Properties=species:S:1:pos:R:3:forces:R:3 energy=56.94348851397645 pbc="F F F"
Si       0.00000000       0.00000000       0.00000000       0.00000000       0.00000000    -168.32356262
Si       0.00000000       0.00000000       0.94424242       0.00000000       0.00000000     168.32356262
2
Properties=species:S:1:pos:R:3:forces:R:3 energy=47.28782360718498 pbc="F F F"
Si       0.00000000       0.00000000       0.00000000       0.00000000       0.00000000    -163.73564148
Si       0.00000000       0.00000000       1.00303030       0.00000000       0.00000000     163.73564148
2
Properties=species:S:1:pos:R:3:forces:R:3 energy=37.744875875714115 pbc="F F F"
Si       0.00000000       0.00000000       0.00000000       0.00000000       0.00000000    -156.62055969
Si       0.00000000       0.00000000       1.06181818       0.00000000       0.00000000     156.62055969
2
Properties=species:S:1:pos:R:3:forces:R:3 energy=29.458148648034914 pbc="F F F"
Si       0.00000000       0.00000000       0.00000000       0.00000000       0.00000000    -122.45402527
Si       0.00000000       0.00000000       1.12060606       0.00000000       0.00000000     122.45402527
2
Properties=species:S:1:pos:R:3:forces:R:3 energy=23.260676604255003 pbc="F F F"
Si       0.00000000       0.00000000       0.00000000       0.00000000       0.00000000     -91.44145966
Si       0.00000000       0.00000000       1.17939394       0.00000000       0.00000000      91.44145966
2
Properties=species:S:1:pos:R:3:forces:R:3 energy=18.356574842048495 pbc="F F F"
Si       0.00000000       0.00000000       0.00000000       0.00000000       0.00000000     -77.45318604
Si       0.00000000       0.00000000       1.23818182       0.00000000       0.00000000      77.45318604
2
Properties=species:S:1:pos:R:3:forces:R:3 energy=14.040682498000873 pbc="F F F"
Si       0.00000000       0.00000000       0.00000000       0.00000000       0.00000000     -69.52555847
Si       0.00000000       0.00000000       1.29696970       0.00000000       0.00000000      69.52555847
2
Properties=species:S:1:pos:R:3:forces:R:3 energy=10.203889002827026 pbc="F F F"
Si       0.00000000       0.00000000       0.00000000       0.00000000       0.00000000     -60.72655869
Si       0.00000000       0.00000000       1.35575758       0.00000000       0.00000000      60.72655869
2
Properties=species:S:1:pos:R:3:forces:R:3 energy=6.9214224012324586 pbc="F F F"
Si       0.00000000       0.00000000       0.00000000       0.00000000       0.00000000     -50.90845108
Si       0.00000000       0.00000000       1.41454545       0.00000000       0.00000000      50.90845108
2
Properties=species:S:1:pos:R:3:forces:R:3 energy=4.208189928085175 pbc="F F F"
Si       0.00000000       0.00000000       0.00000000       0.00000000       0.00000000     -41.57327271
Si       0.00000000       0.00000000       1.47333333       0.00000000       0.00000000      41.57327271
2
Properties=species:S:1:pos:R:3:forces:R:3 energy=2.007519886278324 pbc="F F F"
Si       0.00000000       0.00000000       0.00000000       0.00000000       0.00000000     -33.53407288
Si       0.00000000       0.00000000       1.53212121       0.00000000       0.00000000      33.53407288
2
Properties=species:S:1:pos:R:3:forces:R:3 energy=0.2382044090466412 pbc="F F F"
Si       0.00000000       0.00000000       0.00000000       0.00000000       0.00000000     -26.87309456
Si       0.00000000       0.00000000       1.59090909       0.00000000       0.00000000      26.87309456
2
Properties=species:S:1:pos:R:3:forces:R:3 energy=-1.1746846507488926 pbc="F F F"
Si       0.00000000       0.00000000       0.00000000       0.00000000       0.00000000     -21.36455536
Si       0.00000000       0.00000000       1.64969697       0.00000000       0.00000000      21.36455536
2
Properties=species:S:1:pos:R:3:forces:R:3 energy=-2.2915749688180775 pbc="F F F"
Si       0.00000000       0.00000000       0.00000000       0.00000000       0.00000000     -16.76835823
Si       0.00000000       0.00000000       1.70848485       0.00000000       0.00000000      16.76835823
2
Properties=species:S:1:pos:R:3:forces:R:3 energy=-3.16070907978048 pbc="F F F"
Si       0.00000000       0.00000000       0.00000000       0.00000000       0.00000000     -12.91301537
Si       0.00000000       0.00000000       1.76727273       0.00000000       0.00000000      12.91301537
2
Properties=species:S:1:pos:R:3:forces:R:3 energy=-3.8221804524174 pbc="F F F"
Si       0.00000000       0.00000000       0.00000000       0.00000000       0.00000000      -9.68901730
Si       0.00000000       0.00000000       1.82606061       0.00000000       0.00000000       9.68901730
2
Properties=species:S:1:pos:R:3:forces:R:3 energy=-4.310837616866702 pbc="F F F"
Si       0.00000000       0.00000000       0.00000000       0.00000000       0.00000000      -7.02307034
Si       0.00000000       0.00000000       1.88484848       0.00000000       0.00000000       7.02307034
2
Properties=species:S:1:pos:R:3:forces:R:3 energy=-4.657603763940813 pbc="F F F"
Si       0.00000000       0.00000000       0.00000000       0.00000000       0.00000000      -4.85098886
Si       0.00000000       0.00000000       1.94363636       0.00000000       0.00000000       4.85098886
2
Properties=species:S:1:pos:R:3:forces:R:3 energy=-4.889545621921586 pbc="F F F"
Si       0.00000000       0.00000000       0.00000000       0.00000000       0.00000000      -3.10491323
Si       0.00000000       0.00000000       2.00242424       0.00000000       0.00000000       3.10491323
2
Properties=species:S:1:pos:R:3:forces:R:3 energy=-5.029644063041161 pbc="F F F"
Si       0.00000000       0.00000000       0.00000000       0.00000000       0.00000000      -1.71504784
Si       0.00000000       0.00000000       2.06121212       0.00000000       0.00000000       1.71504784
2
Properties=species:S:1:pos:R:3:forces:R:3 energy=-5.096879713926877 pbc="F F F"
Si       0.00000000       0.00000000       0.00000000       0.00000000       0.00000000      -0.61561775
Si       0.00000000       0.00000000       2.12000000       0.00000000       0.00000000       0.61561775
2
Properties=species:S:1:pos:R:3:forces:R:3 energy=-5.106574020882274 pbc="F F F"
Si       0.00000000       0.00000000       0.00000000       0.00000000       0.00000000       0.25136954
Si       0.00000000       0.00000000       2.17878788       0.00000000       0.00000000      -0.25136954
2
Properties=species:S:1:pos:R:3:forces:R:3 energy=-5.07090632826809 pbc="F F F"
Si       0.00000000       0.00000000       0.00000000       0.00000000       0.00000000       0.93530017
Si       0.00000000       0.00000000       2.23757576       0.00000000       0.00000000      -0.93530017
2
Properties=species:S:1:pos:R:3:forces:R:3 energy=-4.999376622789804 pbc="F F F"
Si       0.00000000       0.00000000       0.00000000       0.00000000       0.00000000       1.47753632
Si       0.00000000       0.00000000       2.29636364       0.00000000       0.00000000      -1.47753632
2
Properties=species:S:1:pos:R:3:forces:R:3 energy=-4.899317743640733 pbc="F F F"
Si       0.00000000       0.00000000       0.00000000       0.00000000       0.00000000       1.91059375
Si       0.00000000       0.00000000       2.35515152       0.00000000       0.00000000      -1.91059375
2
Properties=species:S:1:pos:R:3:forces:R:3 energy=-4.776417495191813 pbc="F F F"
Si       0.00000000       0.00000000       0.00000000       0.00000000       0.00000000       2.25758100
Si       0.00000000       0.00000000       2.41393939       0.00000000       0.00000000      -2.25758100
2
Properties=species:S:1:pos:R:3:forces:R:3 energy=-4.635306852665338 pbc="F F F"
Si       0.00000000       0.00000000       0.00000000       0.00000000       0.00000000       2.53139472
Si       0.00000000       0.00000000       2.47272727       0.00000000       0.00000000      -2.53139472
2
Properties=species:S:1:pos:R:3:forces:R:3 energy=-4.480150731761081 pbc="F F F"
Si       0.00000000       0.00000000       0.00000000       0.00000000       0.00000000       2.73534560
Si       0.00000000       0.00000000       2.53151515       0.00000000       0.00000000      -2.73534560
2
Properties=species:S:1:pos:R:3:forces:R:3 energy=-4.3151278491664495 pbc="F F F"
Si       0.00000000       0.00000000       0.00000000       0.00000000       0.00000000       2.86629510
Si       0.00000000       0.00000000       2.59030303       0.00000000       0.00000000      -2.86629510
2
Properties=species:S:1:pos:R:3:forces:R:3 energy=-4.144654411757866 pbc="F F F"
Si       0.00000000       0.00000000       0.00000000       0.00000000       0.00000000       2.92040706
Si       0.00000000       0.00000000       2.64909091       0.00000000       0.00000000      -2.92040706
2
Properties=species:S:1:pos:R:3:forces:R:3 energy=-3.9732261366556436 pbc="F F F"
Si       0.00000000       0.00000000       0.00000000       0.00000000       0.00000000       2.89996123
Si       0.00000000       0.00000000       2.70787879       0.00000000       0.00000000      -2.89996123
2
Properties=species:S:1:pos:R:3:forces:R:3 energy=-3.804909102585601 pbc="F F F"
Si       0.00000000       0.00000000       0.00000000       0.00000000       0.00000000       2.81745219
Si       0.00000000       0.00000000       2.76666667       0.00000000       0.00000000      -2.81745219
2
Properties=species:S:1:pos:R:3:forces:R:3 energy=-3.6428074744529733 pbc="F F F"
Si       0.00000000       0.00000000       0.00000000       0.00000000       0.00000000       2.69167614
Si       0.00000000       0.00000000       2.82545455       0.00000000       0.00000000      -2.69167614
2
Properties=species:S:1:pos:R:3:forces:R:3 energy=-3.488941750414134 pbc="F F F"
Si       0.00000000       0.00000000       0.00000000       0.00000000       0.00000000       2.53985667
Si       0.00000000       0.00000000       2.88424242       0.00000000       0.00000000      -2.53985667
2
Properties=species:S:1:pos:R:3:forces:R:3 energy=-3.3444157363503533 pbc="F F F"
Si       0.00000000       0.00000000       0.00000000       0.00000000       0.00000000       2.37602377
Si       0.00000000       0.00000000       2.94303030       0.00000000       0.00000000      -2.37602377
2
Properties=species:S:1:pos:R:3:forces:R:3 energy=-3.2095869881419468 pbc="F F F"
Si       0.00000000       0.00000000       0.00000000       0.00000000       0.00000000       2.21164370
Si       0.00000000       0.00000000       3.00181818       0.00000000       0.00000000      -2.21164370
2
Properties=species:S:1:pos:R:3:forces:R:3 energy=-3.084240546414616 pbc="F F F"
Si       0.00000000       0.00000000       0.00000000       0.00000000       0.00000000       2.05429125
Si       0.00000000       0.00000000       3.06060606       0.00000000       0.00000000      -2.05429125
2
Properties=species:S:1:pos:R:3:forces:R:3 energy=-2.967849352559578 pbc="F F F"
Si       0.00000000       0.00000000       0.00000000       0.00000000       0.00000000       1.90720844
Si       0.00000000       0.00000000       3.11939394       0.00000000       0.00000000      -1.90720844
2
Properties=species:S:1:pos:R:3:forces:R:3 energy=-2.8597934990787035 pbc="F F F"
Si       0.00000000       0.00000000       0.00000000       0.00000000       0.00000000       1.77053654
Si       0.00000000       0.00000000       3.17818182       0.00000000       0.00000000      -1.77053654
2
Properties=species:S:1:pos:R:3:forces:R:3 energy=-2.7594985125855844 pbc="F F F"
Si       0.00000000       0.00000000       0.00000000       0.00000000       0.00000000       1.64296544
Si       0.00000000       0.00000000       3.23696970       0.00000000       0.00000000      -1.64296544
2
Properties=species:S:1:pos:R:3:forces:R:3 energy=-2.666472555328542 pbc="F F F"
Si       0.00000000       0.00000000       0.00000000       0.00000000       0.00000000       1.52298367
Si       0.00000000       0.00000000       3.29575758       0.00000000       0.00000000      -1.52298367
2
Properties=species:S:1:pos:R:3:forces:R:3 energy=-2.5803054793886067 pbc="F F F"
Si       0.00000000       0.00000000       0.00000000       0.00000000       0.00000000       1.40951848
Si       0.00000000       0.00000000       3.35454545       0.00000000       0.00000000      -1.40951848
2
Properties=species:S:1:pos:R:3:forces:R:3 energy=-2.500629859433447 pbc="F F F"
Si       0.00000000       0.00000000       0.00000000       0.00000000       0.00000000       1.30204093
Si       0.00000000       0.00000000       3.41333333       0.00000000       0.00000000      -1.30204093
2
Properties=species:S:1:pos:R:3:forces:R:3 energy=-2.427101239333565 pbc="F F F"
Si       0.00000000       0.00000000       0.00000000       0.00000000       0.00000000       1.20044053
Si       0.00000000       0.00000000       3.47212121       0.00000000       0.00000000      -1.20044053
2
Properties=species:S:1:pos:R:3:forces:R:3 energy=-2.3593713467582096 pbc="F F F"
Si       0.00000000       0.00000000       0.00000000       0.00000000       0.00000000       1.10479653
Si       0.00000000       0.00000000       3.53090909       0.00000000       0.00000000      -1.10479653
2
Properties=species:S:1:pos:R:3:forces:R:3 energy=-2.2970847726583687 pbc="F F F"
Si       0.00000000       0.00000000       0.00000000       0.00000000       0.00000000       1.01520598
Si       0.00000000       0.00000000       3.58969697       0.00000000       0.00000000      -1.01520598
2
Properties=species:S:1:pos:R:3:forces:R:3 energy=-2.2398874164554274 pbc="F F F"
Si       0.00000000       0.00000000       0.00000000       0.00000000       0.00000000       0.93169492
Si       0.00000000       0.00000000       3.64848485       0.00000000       0.00000000      -0.93169492
2
Properties=species:S:1:pos:R:3:forces:R:3 energy=-2.187424028163548 pbc="F F F"
Si       0.00000000       0.00000000       0.00000000       0.00000000       0.00000000       0.85415328
Si       0.00000000       0.00000000       3.70727273       0.00000000       0.00000000      -0.85415328
2
Properties=species:S:1:pos:R:3:forces:R:3 energy=-2.139347827496212 pbc="F F F"
Si       0.00000000       0.00000000       0.00000000       0.00000000       0.00000000       0.78234267
Si       0.00000000       0.00000000       3.76606061       0.00000000       0.00000000      -0.78234267
2
Properties=species:S:1:pos:R:3:forces:R:3 energy=-2.0953333531269136 pbc="F F F"
Si       0.00000000       0.00000000       0.00000000       0.00000000       0.00000000       0.71593732
Si       0.00000000       0.00000000       3.82484848       0.00000000       0.00000000      -0.71593732
2
Properties=species:S:1:pos:R:3:forces:R:3 energy=-2.055072616313673 pbc="F F F"
Si       0.00000000       0.00000000       0.00000000       0.00000000       0.00000000       0.65453023
Si       0.00000000       0.00000000       3.88363636       0.00000000       0.00000000      -0.65453023
2
Properties=species:S:1:pos:R:3:forces:R:3 energy=-2.0182860269719862 pbc="F F F"
Si       0.00000000       0.00000000       0.00000000       0.00000000       0.00000000       0.59769875
Si       0.00000000       0.00000000       3.94242424       0.00000000       0.00000000      -0.59769875
2
Properties=species:S:1:pos:R:3:forces:R:3 energy=-1.9847173445350252 pbc="F F F"
Si       0.00000000       0.00000000       0.00000000       0.00000000       0.00000000       0.54501396
Si       0.00000000       0.00000000       4.00121212       0.00000000       0.00000000      -0.54501396
2
Properties=species:S:1:pos:R:3:forces:R:3 energy=-1.9541324593502116 pbc="F F F"
Si       0.00000000       0.00000000       0.00000000       0.00000000       0.00000000       0.49608284
Si       0.00000000       0.00000000       4.06000000       0.00000000       0.00000000      -0.49608284
2
Properties=species:S:1:pos:R:3:forces:R:3 energy=-1.9263226545115946 pbc="F F F"
Si       0.00000000       0.00000000       0.00000000       0.00000000       0.00000000       0.45058259
Si       0.00000000       0.00000000       4.11878788       0.00000000       0.00000000      -0.45058259
2
Properties=species:S:1:pos:R:3:forces:R:3 energy=-1.9010925697213439 pbc="F F F"
Si       0.00000000       0.00000000       0.00000000       0.00000000       0.00000000       0.40827027
Si       0.00000000       0.00000000       4.17757576       0.00000000       0.00000000      -0.40827027
2
Properties=species:S:1:pos:R:3:forces:R:3 energy=-1.878260090415977 pbc="F F F"
Si       0.00000000       0.00000000       0.00000000       0.00000000       0.00000000       0.36899376
Si       0.00000000       0.00000000       4.23636364       0.00000000       0.00000000      -0.36899376
2
Properties=species:S:1:pos:R:3:forces:R:3 energy=-1.8576491813697438 pbc="F F F"
Si       0.00000000       0.00000000       0.00000000       0.00000000       0.00000000       0.33269113
Si       0.00000000       0.00000000       4.29515152       0.00000000       0.00000000      -0.33269113
2
Properties=species:S:1:pos:R:3:forces:R:3 energy=-1.8390855159646504 pbc="F F F"
Si       0.00000000       0.00000000       0.00000000       0.00000000       0.00000000       0.29937214
Si       0.00000000       0.00000000       4.35393939       0.00000000       0.00000000      -0.29937214
2
Properties=species:S:1:pos:R:3:forces:R:3 energy=-1.8223914032919903 pbc="F F F"
Si       0.00000000       0.00000000       0.00000000       0.00000000       0.00000000       0.26907563
Si       0.00000000       0.00000000       4.41272727       0.00000000       0.00000000      -0.26907563
2
Properties=species:S:1:pos:R:3:forces:R:3 energy=-1.8073886111614292 pbc="F F F"
Si       0.00000000       0.00000000       0.00000000       0.00000000       0.00000000       0.24183637
Si       0.00000000       0.00000000       4.47151515       0.00000000       0.00000000      -0.24183637
2
Properties=species:S:1:pos:R:3:forces:R:3 energy=-1.7938973264795313 pbc="F F F"
Si       0.00000000       0.00000000       0.00000000       0.00000000       0.00000000       0.21764061
Si       0.00000000       0.00000000       4.53030303       0.00000000       0.00000000      -0.21764061
2
Properties=species:S:1:pos:R:3:forces:R:3 energy=-1.7817417474149488 pbc="F F F"
Si       0.00000000       0.00000000       0.00000000       0.00000000       0.00000000       0.19638436
Si       0.00000000       0.00000000       4.58909091       0.00000000       0.00000000      -0.19638436
2
Properties=species:S:1:pos:R:3:forces:R:3 energy=-1.7707541824476893 pbc="F F F"
Si       0.00000000       0.00000000       0.00000000       0.00000000       0.00000000       0.17785370
Si       0.00000000       0.00000000       4.64787879       0.00000000       0.00000000      -0.17785370
2
Properties=species:S:1:pos:R:3:forces:R:3 energy=-1.7607830944123126 pbc="F F F"
Si       0.00000000       0.00000000       0.00000000       0.00000000       0.00000000       0.16172701
Si       0.00000000       0.00000000       4.70666667       0.00000000       0.00000000      -0.16172701
2
Properties=species:S:1:pos:R:3:forces:R:3 energy=-1.7516993964155234 pbc="F F F"
Si       0.00000000       0.00000000       0.00000000       0.00000000       0.00000000       0.14761220
Si       0.00000000       0.00000000       4.76545455       0.00000000       0.00000000      -0.14761220
2
Properties=species:S:1:pos:R:3:forces:R:3 energy=-1.7433959460726538 pbc="F F F"
Si       0.00000000       0.00000000       0.00000000       0.00000000       0.00000000       0.13510413
Si       0.00000000       0.00000000       4.82424242       0.00000000       0.00000000      -0.13510413
2
Properties=species:S:1:pos:R:3:forces:R:3 energy=-1.7357896322542072 pbc="F F F"
Si       0.00000000       0.00000000       0.00000000       0.00000000       0.00000000       0.12388701
Si       0.00000000       0.00000000       4.88303030       0.00000000       0.00000000      -0.12388701
2
Properties=species:S:1:pos:R:3:forces:R:3 energy=-1.7288074434380907 pbc="F F F"
Si       0.00000000       0.00000000       0.00000000       0.00000000       0.00000000       0.11383012
Si       0.00000000       0.00000000       4.94181818       0.00000000       0.00000000      -0.11383012
2
Properties=species:S:1:pos:R:3:forces:R:3 energy=-1.7223804862383354 pbc="F F F"
Si       0.00000000       0.00000000       0.00000000       0.00000000       0.00000000       0.10504413
Si       0.00000000       0.00000000       5.00060606       0.00000000       0.00000000      -0.10504413
2
Properties=species:S:1:pos:R:3:forces:R:3 energy=-1.7164250148729876 pbc="F F F"
Si       0.00000000       0.00000000       0.00000000       0.00000000       0.00000000       0.09786641
Si       0.00000000       0.00000000       5.05939394       0.00000000       0.00000000      -0.09786641
2
Properties=species:S:1:pos:R:3:forces:R:3 energy=-1.710834542760155 pbc="F F F"
Si       0.00000000       0.00000000       0.00000000       0.00000000       0.00000000       0.09268974
Si       0.00000000       0.00000000       5.11818182       0.00000000       0.00000000      -0.09268974
2
Properties=species:S:1:pos:R:3:forces:R:3 energy=-1.705484947510654 pbc="F F F"
Si       0.00000000       0.00000000       0.00000000       0.00000000       0.00000000       0.08965376
Si       0.00000000       0.00000000       5.17696970       0.00000000       0.00000000      -0.08965376
2
Properties=species:S:1:pos:R:3:forces:R:3 energy=-1.700261960340604 pbc="F F F"
Si       0.00000000       0.00000000       0.00000000       0.00000000       0.00000000       0.08821137
Si       0.00000000       0.00000000       5.23575758       0.00000000       0.00000000      -0.08821137
2
Properties=species:S:1:pos:R:3:forces:R:3 energy=-1.6951127884455381 pbc="F F F"
Si       0.00000000       0.00000000       0.00000000       0.00000000       0.00000000       0.08679021
Si       0.00000000       0.00000000       5.29454545       0.00000000       0.00000000      -0.08679021
2
Properties=species:S:1:pos:R:3:forces:R:3 energy=-1.6901015041384844 pbc="F F F"
Si       0.00000000       0.00000000       0.00000000       0.00000000       0.00000000       0.08314997
Si       0.00000000       0.00000000       5.35333333       0.00000000       0.00000000      -0.08314997
2
Properties=species:S:1:pos:R:3:forces:R:3 energy=-1.6853967773805203 pbc="F F F"
Si       0.00000000       0.00000000       0.00000000       0.00000000       0.00000000       0.07656420
Si       0.00000000       0.00000000       5.41212121       0.00000000       0.00000000      -0.07656420
2
Properties=species:S:1:pos:R:3:forces:R:3 energy=-1.6810874986076147 pbc="F F F"
Si       0.00000000       0.00000000       0.00000000       0.00000000       0.00000000       0.07058895
Si       0.00000000       0.00000000       5.47090909       0.00000000       0.00000000      -0.07058895
2
Properties=species:S:1:pos:R:3:forces:R:3 energy=-1.6770297472649769 pbc="F F F"
Si       0.00000000       0.00000000       0.00000000       0.00000000       0.00000000       0.06761260
Si       0.00000000       0.00000000       5.52969697       0.00000000       0.00000000      -0.06761260
2
Properties=species:S:1:pos:R:3:forces:R:3 energy=-1.6731976144507827 pbc="F F F"
Si       0.00000000       0.00000000       0.00000000       0.00000000       0.00000000       0.06183827
Si       0.00000000       0.00000000       5.58848485       0.00000000       0.00000000      -0.06183827
2
Properties=species:S:1:pos:R:3:forces:R:3 energy=-1.6698456332847635 pbc="F F F"
Si       0.00000000       0.00000000       0.00000000       0.00000000       0.00000000       0.05193016
Si       0.00000000       0.00000000       5.64727273       0.00000000       0.00000000      -0.05193016
2
Properties=species:S:1:pos:R:3:forces:R:3 energy=-1.667043705455802 pbc="F F F"
Si       0.00000000       0.00000000       0.00000000       0.00000000       0.00000000       0.04456504
Si       0.00000000       0.00000000       5.70606061       0.00000000       0.00000000      -0.04456504
2
Properties=species:S:1:pos:R:3:forces:R:3 energy=-1.6644337043630704 pbc="F F F"
Si       0.00000000       0.00000000       0.00000000       0.00000000       0.00000000       0.04508817
Si       0.00000000       0.00000000       5.76484848       0.00000000       0.00000000      -0.04508817
2
Properties=species:S:1:pos:R:3:forces:R:3 energy=-1.661795874880639 pbc="F F F"
Si       0.00000000       0.00000000       0.00000000       0.00000000       0.00000000       0.04288503
Si       0.00000000       0.00000000       5.82363636       0.00000000       0.00000000      -0.04288503
2
Properties=species:S:1:pos:R:3:forces:R:3 energy=-1.6596563971728968 pbc="F F F"
Si       0.00000000       0.00000000       0.00000000       0.00000000       0.00000000       0.02847204
Si       0.00000000       0.00000000       5.88242424       0.00000000       0.00000000      -0.02847204
2
Properties=species:S:1:pos:R:3:forces:R:3 energy=-1.6584833536946415 pbc="F F F"
Si       0.00000000       0.00000000       0.00000000       0.00000000       0.00000000       0.01211904
Si       0.00000000       0.00000000       5.94121212       0.00000000       0.00000000      -0.01211904
2
Properties=species:S:1:pos:R:3:forces:R:3 energy=-1.658035731616598 pbc="F F F"
Si       0.00000000       0.00000000       0.00000000       0.00000000       0.00000000       0.00526128
Si       0.00000000       0.00000000       6.00000000       0.00000000       0.00000000      -0.00526128
