2
Properties=species:S:1:pos:R:3:forces:R:3 energy=1659.2922287088472 pbc="F F F"
Si       0.00000000       0.00000000       0.00000000       0.00000000       0.00000000  -19595.64257812
Si       0.00000000       0.00000000       0.18000000       0.00000000       0.00000000   19595.64257812
2
Properties=species:S:1:pos:R:3:forces:R:3 energy=923.8677291971285 pbc="F F F"
Si       0.00000000       0.00000000       0.00000000       0.00000000       0.00000000   -7705.95849609
Si       0.00000000       0.00000000       0.23878788       0.00000000       0.00000000    7705.95849609
2
Properties=species:S:1:pos:R:3:forces:R:3 energy=606.6848678690035 pbc="F F F"
Si       0.00000000       0.00000000       0.00000000       0.00000000       0.00000000   -3745.70556641
Si       0.00000000       0.00000000       0.29757576       0.00000000       0.00000000    3745.70556641
2
Properties=species:S:1:pos:R:3:forces:R:3 energy=437.1635666058079 pbc="F F F"
Si       0.00000000       0.00000000       0.00000000       0.00000000       0.00000000   -2246.20166016
Si       0.00000000       0.00000000       0.35636364       0.00000000       0.00000000    2246.20166016
2
Properties=species:S:1:pos:R:3:forces:R:3 energy=326.5813217454323 pbc="F F F"
Si       0.00000000       0.00000000       0.00000000       0.00000000       0.00000000   -1589.50793457
Si       0.00000000       0.00000000       0.41515152       0.00000000       0.00000000    1589.50793457
2
Properties=species:S:1:pos:R:3:forces:R:3 energy=251.23854833961056 pbc="F F F"
Si       0.00000000       0.00000000       0.00000000       0.00000000       0.00000000    -972.89868164
Si       0.00000000       0.00000000       0.47393939       0.00000000       0.00000000     972.89868164
2
Properties=species:S:1:pos:R:3:forces:R:3 energy=201.57563029630757 pbc="F F F"
Si       0.00000000       0.00000000       0.00000000       0.00000000       0.00000000    -770.15783691
Si       0.00000000       0.00000000       0.53272727       0.00000000       0.00000000     770.15783691
2
Properties=species:S:1:pos:R:3:forces:R:3 energy=161.76871510180345 pbc="F F F"
Si       0.00000000       0.00000000       0.00000000       0.00000000       0.00000000    -573.61340332
Si       0.00000000       0.00000000       0.59151515       0.00000000       0.00000000     573.61340332
2
Properties=species:S:1:pos:R:3:forces:R:3 energy=133.92971073725735 pbc="F F F"
Si       0.00000000       0.00000000       0.00000000       0.00000000       0.00000000    -408.02316284
Si       0.00000000       0.00000000       0.65030303       0.00000000       0.00000000     408.02316284
2
Properties=species:S:1:pos:R:3:forces:R:3 energy=112.60946712989134 pbc="F F F"
Si       0.00000000       0.00000000       0.00000000       0.00000000       0.00000000    -323.33099365
Si       0.00000000       0.00000000       0.70909091       0.00000000       0.00000000     323.33099365
2
Properties=species:S:1:pos:R:3:forces:R:3 energy=95.40426729254274 pbc="F F F"
Si       0.00000000       0.00000000       0.00000000       0.00000000       0.00000000    -268.80810547
Si       0.00000000       0.00000000       0.76787879       0.00000000       0.00000000     268.80810547
2
Properties=species:S:1:pos:R:3:forces:R:3 energy=80.51565697538965 pbc="F F F"
Si       0.00000000       0.00000000       0.00000000       0.00000000       0.00000000    -237.46176147
Si       0.00000000       0.00000000       0.82666667       0.00000000       0.00000000     237.46176147
2
Properties=species:S:1:pos:R:3:forces:R:3 energy=67.64589912020647 pbc="F F F"
Si       0.00000000       0.00000000       0.00000000       0.00000000       0.00000000    -199.43771362
Si       0.00000000       0.00000000       0.88545455       0.00000000       0.00000000     199.43771362
2
Properties=species:S:1:pos:R:3:forces:R:3 energy=56.94347707305247 pbc="F F F"
Si       0.00000000       0.00000000       0.00000000       0.00000000       0.00000000    -168.32345581
Si       0.00000000       0.00000000       0.94424242       0.00000000       0.00000000     168.32345581
2
Properties=species:S:1:pos:R:3:forces:R:3 energy=47.287854127930935 pbc="F F F"
Si       0.00000000       0.00000000       0.00000000       0.00000000       0.00000000    -163.73567200
Si       0.00000000       0.00000000       1.00303030       0.00000000       0.00000000     163.73567200
2
Properties=species:S:1:pos:R:3:forces:R:3 energy=37.74489114083882 pbc="F F F"
Si       0.00000000       0.00000000       0.00000000       0.00000000       0.00000000    -156.62057495
Si       0.00000000       0.00000000       1.06181818       0.00000000       0.00000000     156.62057495
2
Properties=species:S:1:pos:R:3:forces:R:3 energy=29.458146747021928 pbc="F F F"
Si       0.00000000       0.00000000       0.00000000       0.00000000       0.00000000    -122.45400238
Si       0.00000000       0.00000000       1.12060606       0.00000000       0.00000000     122.45400238
2
Properties=species:S:1:pos:R:3:forces:R:3 energy=23.260676607422827 pbc="F F F"
Si       0.00000000       0.00000000       0.00000000       0.00000000       0.00000000     -91.44146729
Si       0.00000000       0.00000000       1.17939394       0.00000000       0.00000000      91.44146729
2
Properties=species:S:1:pos:R:3:forces:R:3 energy=18.356580570430037 pbc="F F F"
Si       0.00000000       0.00000000       0.00000000       0.00000000       0.00000000     -77.45317841
Si       0.00000000       0.00000000       1.23818182       0.00000000       0.00000000      77.45317841
2
Properties=species:S:1:pos:R:3:forces:R:3 energy=14.04068154749438 pbc="F F F"
Si       0.00000000       0.00000000       0.00000000       0.00000000       0.00000000     -69.52555084
Si       0.00000000       0.00000000       1.29696970       0.00000000       0.00000000      69.52555084
2
Properties=species:S:1:pos:R:3:forces:R:3 energy=10.203889962836987 pbc="F F F"
Si       0.00000000       0.00000000       0.00000000       0.00000000       0.00000000     -60.72656631
Si       0.00000000       0.00000000       1.35575758       0.00000000       0.00000000      60.72656631
2
Properties=species:S:1:pos:R:3:forces:R:3 energy=6.921423342235487 pbc="F F F"
Si       0.00000000       0.00000000       0.00000000       0.00000000       0.00000000     -50.90845490
Si       0.00000000       0.00000000       1.41454545       0.00000000       0.00000000      50.90845490
2
Properties=species:S:1:pos:R:3:forces:R:3 energy=4.208189444912373 pbc="F F F"
Si       0.00000000       0.00000000       0.00000000       0.00000000       0.00000000     -41.57326126
Si       0.00000000       0.00000000       1.47333333       0.00000000       0.00000000      41.57326126
2
Properties=species:S:1:pos:R:3:forces:R:3 energy=2.0075198957817904 pbc="F F F"
Si       0.00000000       0.00000000       0.00000000       0.00000000       0.00000000     -33.53409576
Si       0.00000000       0.00000000       1.53212121       0.00000000       0.00000000      33.53409576
2
Properties=species:S:1:pos:R:3:forces:R:3 energy=0.2382053627209576 pbc="F F F"
Si       0.00000000       0.00000000       0.00000000       0.00000000       0.00000000     -26.87310219
Si       0.00000000       0.00000000       1.59090909       0.00000000       0.00000000      26.87310219
2
Properties=species:S:1:pos:R:3:forces:R:3 energy=-1.1746827434002598 pbc="F F F"
Si       0.00000000       0.00000000       0.00000000       0.00000000       0.00000000     -21.36454773
Si       0.00000000       0.00000000       1.64969697       0.00000000       0.00000000      21.36454773
2
Properties=species:S:1:pos:R:3:forces:R:3 energy=-2.291574015143761 pbc="F F F"
Si       0.00000000       0.00000000       0.00000000       0.00000000       0.00000000     -16.76835823
Si       0.00000000       0.00000000       1.70848485       0.00000000       0.00000000      16.76835823
2
Properties=species:S:1:pos:R:3:forces:R:3 energy=-3.1607081197705194 pbc="F F F"
Si       0.00000000       0.00000000       0.00000000       0.00000000       0.00000000     -12.91301823
Si       0.00000000       0.00000000       1.76727273       0.00000000       0.00000000      12.91301823
2
Properties=species:S:1:pos:R:3:forces:R:3 energy=-3.8221799755802417 pbc="F F F"
Si       0.00000000       0.00000000       0.00000000       0.00000000       0.00000000      -9.68901539
Si       0.00000000       0.00000000       1.82606061       0.00000000       0.00000000       9.68901539
2
Properties=species:S:1:pos:R:3:forces:R:3 energy=-4.3108371336939 pbc="F F F"
Si       0.00000000       0.00000000       0.00000000       0.00000000       0.00000000      -7.02307415
Si       0.00000000       0.00000000       1.88484848       0.00000000       0.00000000       7.02307415
2
Properties=species:S:1:pos:R:3:forces:R:3 energy=-4.657604247113616 pbc="F F F"
Si       0.00000000       0.00000000       0.00000000       0.00000000       0.00000000      -4.85099125
Si       0.00000000       0.00000000       1.94363636       0.00000000       0.00000000       4.85099125
2
Properties=species:S:1:pos:R:3:forces:R:3 energy=-4.889545621921586 pbc="F F F"
Si       0.00000000       0.00000000       0.00000000       0.00000000       0.00000000      -3.10491109
Si       0.00000000       0.00000000       2.00242424       0.00000000       0.00000000       3.10491109
2
Properties=species:S:1:pos:R:3:forces:R:3 energy=-5.029644063041161 pbc="F F F"
Si       0.00000000       0.00000000       0.00000000       0.00000000       0.00000000      -1.71505046
Si       0.00000000       0.00000000       2.06121212       0.00000000       0.00000000       1.71505046
2
Properties=species:S:1:pos:R:3:forces:R:3 energy=-5.0968782834154025 pbc="F F F"
Si       0.00000000       0.00000000       0.00000000       0.00000000       0.00000000      -0.61561978
Si       0.00000000       0.00000000       2.12000000       0.00000000       0.00000000       0.61561978
2
Properties=species:S:1:pos:R:3:forces:R:3 energy=-5.106574497719432 pbc="F F F"
Si       0.00000000       0.00000000       0.00000000       0.00000000       0.00000000       0.25137287
Si       0.00000000       0.00000000       2.17878788       0.00000000       0.00000000      -0.25137287
2
Properties=species:S:1:pos:R:3:forces:R:3 energy=-5.070906334603734 pbc="F F F"
Si       0.00000000       0.00000000       0.00000000       0.00000000       0.00000000       0.93530077
Si       0.00000000       0.00000000       2.23757576       0.00000000       0.00000000      -0.93530077
2
Properties=species:S:1:pos:R:3:forces:R:3 energy=-4.999376622789804 pbc="F F F"
Si       0.00000000       0.00000000       0.00000000       0.00000000       0.00000000       1.47753477
Si       0.00000000       0.00000000       2.29636364       0.00000000       0.00000000      -1.47753477
2
Properties=species:S:1:pos:R:3:forces:R:3 energy=-4.899318226813535 pbc="F F F"
Si       0.00000000       0.00000000       0.00000000       0.00000000       0.00000000       1.91059637
Si       0.00000000       0.00000000       2.35515152       0.00000000       0.00000000      -1.91059637
2
Properties=species:S:1:pos:R:3:forces:R:3 energy=-4.776417501527457 pbc="F F F"
Si       0.00000000       0.00000000       0.00000000       0.00000000       0.00000000       2.25758195
Si       0.00000000       0.00000000       2.41393939       0.00000000       0.00000000      -2.25758195
2
Properties=species:S:1:pos:R:3:forces:R:3 energy=-4.635306855833161 pbc="F F F"
Si       0.00000000       0.00000000       0.00000000       0.00000000       0.00000000       2.53139544
Si       0.00000000       0.00000000       2.47272727       0.00000000       0.00000000      -2.53139544
2
Properties=species:S:1:pos:R:3:forces:R:3 energy=-4.480150264427389 pbc="F F F"
Si       0.00000000       0.00000000       0.00000000       0.00000000       0.00000000       2.73534465
Si       0.00000000       0.00000000       2.53151515       0.00000000       0.00000000      -2.73534465
2
Properties=species:S:1:pos:R:3:forces:R:3 energy=-4.3151278491664495 pbc="F F F"
Si       0.00000000       0.00000000       0.00000000       0.00000000       0.00000000       2.86629486
Si       0.00000000       0.00000000       2.59030303       0.00000000       0.00000000      -2.86629486
2
Properties=species:S:1:pos:R:3:forces:R:3 energy=-4.144654888595024 pbc="F F F"
Si       0.00000000       0.00000000       0.00000000       0.00000000       0.00000000       2.92040634
Si       0.00000000       0.00000000       2.64909091       0.00000000       0.00000000      -2.92040634
2
Properties=species:S:1:pos:R:3:forces:R:3 energy=-3.97322709032996 pbc="F F F"
Si       0.00000000       0.00000000       0.00000000       0.00000000       0.00000000       2.89996076
Si       0.00000000       0.00000000       2.70787879       0.00000000       0.00000000      -2.89996076
2
Properties=species:S:1:pos:R:3:forces:R:3 energy=-3.804909102585601 pbc="F F F"
Si       0.00000000       0.00000000       0.00000000       0.00000000       0.00000000       2.81745172
Si       0.00000000       0.00000000       2.76666667       0.00000000       0.00000000      -2.81745172
2
Properties=species:S:1:pos:R:3:forces:R:3 energy=-3.6428079481223095 pbc="F F F"
Si       0.00000000       0.00000000       0.00000000       0.00000000       0.00000000       2.69167757
Si       0.00000000       0.00000000       2.82545455       0.00000000       0.00000000      -2.69167757
2
Properties=species:S:1:pos:R:3:forces:R:3 energy=-3.488941273576976 pbc="F F F"
Si       0.00000000       0.00000000       0.00000000       0.00000000       0.00000000       2.53985643
Si       0.00000000       0.00000000       2.88424242       0.00000000       0.00000000      -2.53985643
2
Properties=species:S:1:pos:R:3:forces:R:3 energy=-3.3444159747689324 pbc="F F F"
Si       0.00000000       0.00000000       0.00000000       0.00000000       0.00000000       2.37602425
Si       0.00000000       0.00000000       2.94303030       0.00000000       0.00000000      -2.37602425
2
Properties=species:S:1:pos:R:3:forces:R:3 energy=-3.209587941816263 pbc="F F F"
Si       0.00000000       0.00000000       0.00000000       0.00000000       0.00000000       2.21164513
Si       0.00000000       0.00000000       3.00181818       0.00000000       0.00000000      -2.21164513
2
Properties=species:S:1:pos:R:3:forces:R:3 energy=-3.0842410295874187 pbc="F F F"
Si       0.00000000       0.00000000       0.00000000       0.00000000       0.00000000       2.05429101
Si       0.00000000       0.00000000       3.06060606       0.00000000       0.00000000      -2.05429101
2
Properties=species:S:1:pos:R:3:forces:R:3 energy=-2.9678498293967364 pbc="F F F"
Si       0.00000000       0.00000000       0.00000000       0.00000000       0.00000000       1.90720809
Si       0.00000000       0.00000000       3.11939394       0.00000000       0.00000000      -1.90720809
2
Properties=species:S:1:pos:R:3:forces:R:3 energy=-2.8597939759158617 pbc="F F F"
Si       0.00000000       0.00000000       0.00000000       0.00000000       0.00000000       1.77053773
Si       0.00000000       0.00000000       3.17818182       0.00000000       0.00000000      -1.77053773
2
Properties=species:S:1:pos:R:3:forces:R:3 energy=-2.7594987510041635 pbc="F F F"
Si       0.00000000       0.00000000       0.00000000       0.00000000       0.00000000       1.64296472
Si       0.00000000       0.00000000       3.23696970       0.00000000       0.00000000      -1.64296472
2
Properties=species:S:1:pos:R:3:forces:R:3 energy=-2.666472555328542 pbc="F F F"
Si       0.00000000       0.00000000       0.00000000       0.00000000       0.00000000       1.52298284
Si       0.00000000       0.00000000       3.29575758       0.00000000       0.00000000      -1.52298284
2
Properties=species:S:1:pos:R:3:forces:R:3 energy=-2.5803059530579424 pbc="F F F"
Si       0.00000000       0.00000000       0.00000000       0.00000000       0.00000000       1.40951908
Si       0.00000000       0.00000000       3.35454545       0.00000000       0.00000000      -1.40951908
2
Properties=species:S:1:pos:R:3:forces:R:3 energy=-2.500629621014868 pbc="F F F"
Si       0.00000000       0.00000000       0.00000000       0.00000000       0.00000000       1.30204105
Si       0.00000000       0.00000000       3.41333333       0.00000000       0.00000000      -1.30204105
2
Properties=species:S:1:pos:R:3:forces:R:3 energy=-2.427101239333565 pbc="F F F"
Si       0.00000000       0.00000000       0.00000000       0.00000000       0.00000000       1.20044088
Si       0.00000000       0.00000000       3.47212121       0.00000000       0.00000000      -1.20044088
2
Properties=species:S:1:pos:R:3:forces:R:3 energy=-2.3593713467582096 pbc="F F F"
Si       0.00000000       0.00000000       0.00000000       0.00000000       0.00000000       1.10479629
Si       0.00000000       0.00000000       3.53090909       0.00000000       0.00000000      -1.10479629
2
Properties=species:S:1:pos:R:3:forces:R:3 energy=-2.297085011076948 pbc="F F F"
Si       0.00000000       0.00000000       0.00000000       0.00000000       0.00000000       1.01520658
Si       0.00000000       0.00000000       3.58969697       0.00000000       0.00000000      -1.01520658
2
Properties=species:S:1:pos:R:3:forces:R:3 energy=-2.23988764537054 pbc="F F F"
Si       0.00000000       0.00000000       0.00000000       0.00000000       0.00000000       0.93169546
Si       0.00000000       0.00000000       3.64848485       0.00000000       0.00000000      -0.93169546
2
Properties=species:S:1:pos:R:3:forces:R:3 energy=-2.187424266582127 pbc="F F F"
Si       0.00000000       0.00000000       0.00000000       0.00000000       0.00000000       0.85415280
Si       0.00000000       0.00000000       3.70727273       0.00000000       0.00000000      -0.85415280
2
Properties=species:S:1:pos:R:3:forces:R:3 energy=-2.139347827496212 pbc="F F F"
Si       0.00000000       0.00000000       0.00000000       0.00000000       0.00000000       0.78234285
Si       0.00000000       0.00000000       3.76606061       0.00000000       0.00000000      -0.78234285
2
Properties=species:S:1:pos:R:3:forces:R:3 energy=-2.095333349959091 pbc="F F F"
Si       0.00000000       0.00000000       0.00000000       0.00000000       0.00000000       0.71593660
Si       0.00000000       0.00000000       3.82484848       0.00000000       0.00000000      -0.71593660
2
Properties=species:S:1:pos:R:3:forces:R:3 energy=-2.055072619481495 pbc="F F F"
Si       0.00000000       0.00000000       0.00000000       0.00000000       0.00000000       0.65453094
Si       0.00000000       0.00000000       3.88363636       0.00000000       0.00000000      -0.65453094
2
Properties=species:S:1:pos:R:3:forces:R:3 energy=-2.018286274894032 pbc="F F F"
Si       0.00000000       0.00000000       0.00000000       0.00000000       0.00000000       0.59769928
Si       0.00000000       0.00000000       3.94242424       0.00000000       0.00000000      -0.59769928
2
Properties=species:S:1:pos:R:3:forces:R:3 energy=-1.9847173445350252 pbc="F F F"
Si       0.00000000       0.00000000       0.00000000       0.00000000       0.00000000       0.54501486
Si       0.00000000       0.00000000       4.00121212       0.00000000       0.00000000      -0.54501486
2
Properties=species:S:1:pos:R:3:forces:R:3 energy=-1.9541327041044352 pbc="F F F"
Si       0.00000000       0.00000000       0.00000000       0.00000000       0.00000000       0.49608299
Si       0.00000000       0.00000000       4.06000000       0.00000000       0.00000000      -0.49608299
2
Properties=species:S:1:pos:R:3:forces:R:3 energy=-1.9263227800565283 pbc="F F F"
Si       0.00000000       0.00000000       0.00000000       0.00000000       0.00000000       0.45058441
Si       0.00000000       0.00000000       4.11878788       0.00000000       0.00000000      -0.45058441
2
Properties=species:S:1:pos:R:3:forces:R:3 energy=-1.9010925633856997 pbc="F F F"
Si       0.00000000       0.00000000       0.00000000       0.00000000       0.00000000       0.40827006
Si       0.00000000       0.00000000       4.17757576       0.00000000       0.00000000      -0.40827006
2
Properties=species:S:1:pos:R:3:forces:R:3 energy=-1.8782602001218 pbc="F F F"
Si       0.00000000       0.00000000       0.00000000       0.00000000       0.00000000       0.36899376
Si       0.00000000       0.00000000       4.23636364       0.00000000       0.00000000      -0.36899376
2
Properties=species:S:1:pos:R:3:forces:R:3 energy=-1.8576491782019218 pbc="F F F"
Si       0.00000000       0.00000000       0.00000000       0.00000000       0.00000000       0.33269122
Si       0.00000000       0.00000000       4.29515152       0.00000000       0.00000000      -0.33269122
2
Properties=species:S:1:pos:R:3:forces:R:3 energy=-1.8390855127968282 pbc="F F F"
Si       0.00000000       0.00000000       0.00000000       0.00000000       0.00000000       0.29937273
Si       0.00000000       0.00000000       4.35393939       0.00000000       0.00000000      -0.29937273
2
Properties=species:S:1:pos:R:3:forces:R:3 energy=-1.8223915082460802 pbc="F F F"
Si       0.00000000       0.00000000       0.00000000       0.00000000       0.00000000       0.26907593
Si       0.00000000       0.00000000       4.41272727       0.00000000       0.00000000      -0.26907593
2
Properties=species:S:1:pos:R:3:forces:R:3 energy=-1.8073886111614292 pbc="F F F"
Si       0.00000000       0.00000000       0.00000000       0.00000000       0.00000000       0.24183677
Si       0.00000000       0.00000000       4.47151515       0.00000000       0.00000000      -0.24183677
2
Properties=species:S:1:pos:R:3:forces:R:3 energy=-1.7938973248956203 pbc="F F F"
Si       0.00000000       0.00000000       0.00000000       0.00000000       0.00000000       0.21764049
Si       0.00000000       0.00000000       4.53030303       0.00000000       0.00000000      -0.21764049
2
Properties=species:S:1:pos:R:3:forces:R:3 energy=-1.7817417347436604 pbc="F F F"
Si       0.00000000       0.00000000       0.00000000       0.00000000       0.00000000       0.19638419
Si       0.00000000       0.00000000       4.58909091       0.00000000       0.00000000      -0.19638419
2
Properties=species:S:1:pos:R:3:forces:R:3 energy=-1.7707541792798671 pbc="F F F"
Si       0.00000000       0.00000000       0.00000000       0.00000000       0.00000000       0.17785393
Si       0.00000000       0.00000000       4.64787879       0.00000000       0.00000000      -0.17785393
2
Properties=species:S:1:pos:R:3:forces:R:3 energy=-1.7607830944123126 pbc="F F F"
Si       0.00000000       0.00000000       0.00000000       0.00000000       0.00000000       0.16172755
Si       0.00000000       0.00000000       4.70666667       0.00000000       0.00000000      -0.16172755
2
Properties=species:S:1:pos:R:3:forces:R:3 energy=-1.751699515624813 pbc="F F F"
Si       0.00000000       0.00000000       0.00000000       0.00000000       0.00000000       0.14761212
Si       0.00000000       0.00000000       4.76545455       0.00000000       0.00000000      -0.14761212
2
Properties=species:S:1:pos:R:3:forces:R:3 energy=-1.7433958268633643 pbc="F F F"
Si       0.00000000       0.00000000       0.00000000       0.00000000       0.00000000       0.13510346
Si       0.00000000       0.00000000       4.82424242       0.00000000       0.00000000      -0.13510346
2
Properties=species:S:1:pos:R:3:forces:R:3 energy=-1.7357897482956746 pbc="F F F"
Si       0.00000000       0.00000000       0.00000000       0.00000000       0.00000000       0.12388760
Si       0.00000000       0.00000000       4.88303030       0.00000000       0.00000000      -0.12388760
2
Properties=species:S:1:pos:R:3:forces:R:3 energy=-1.7288074402702684 pbc="F F F"
Si       0.00000000       0.00000000       0.00000000       0.00000000       0.00000000       0.11382937
Si       0.00000000       0.00000000       4.94181818       0.00000000       0.00000000      -0.11382937
2
Properties=species:S:1:pos:R:3:forces:R:3 energy=-1.7223809630754936 pbc="F F F"
Si       0.00000000       0.00000000       0.00000000       0.00000000       0.00000000       0.10504438
Si       0.00000000       0.00000000       5.00060606       0.00000000       0.00000000      -0.10504438
2
Properties=species:S:1:pos:R:3:forces:R:3 energy=-1.7164250148729876 pbc="F F F"
Si       0.00000000       0.00000000       0.00000000       0.00000000       0.00000000       0.09786605
Si       0.00000000       0.00000000       5.05939394       0.00000000       0.00000000      -0.09786605
2
Properties=species:S:1:pos:R:3:forces:R:3 energy=-1.710834779594823 pbc="F F F"
Si       0.00000000       0.00000000       0.00000000       0.00000000       0.00000000       0.09268977
Si       0.00000000       0.00000000       5.11818182       0.00000000       0.00000000      -0.09268977
2
Properties=species:S:1:pos:R:3:forces:R:3 energy=-1.705484941966965 pbc="F F F"
Si       0.00000000       0.00000000       0.00000000       0.00000000       0.00000000       0.08965362
Si       0.00000000       0.00000000       5.17696970       0.00000000       0.00000000      -0.08965362
2
Properties=species:S:1:pos:R:3:forces:R:3 energy=-1.700261960340604 pbc="F F F"
Si       0.00000000       0.00000000       0.00000000       0.00000000       0.00000000       0.08821180
Si       0.00000000       0.00000000       5.23575758       0.00000000       0.00000000      -0.08821180
2
Properties=species:S:1:pos:R:3:forces:R:3 energy=-1.6951125484430478 pbc="F F F"
Si       0.00000000       0.00000000       0.00000000       0.00000000       0.00000000       0.08679186
Si       0.00000000       0.00000000       5.29454545       0.00000000       0.00000000      -0.08679186
2
Properties=species:S:1:pos:R:3:forces:R:3 energy=-1.6901014993867511 pbc="F F F"
Si       0.00000000       0.00000000       0.00000000       0.00000000       0.00000000       0.08315121
Si       0.00000000       0.00000000       5.35333333       0.00000000       0.00000000      -0.08315121
2
Properties=species:S:1:pos:R:3:forces:R:3 energy=-1.6853974910523466 pbc="F F F"
Si       0.00000000       0.00000000       0.00000000       0.00000000       0.00000000       0.07656512
Si       0.00000000       0.00000000       5.41212121       0.00000000       0.00000000      -0.07656512
2
Properties=species:S:1:pos:R:3:forces:R:3 energy=-1.6810874978156591 pbc="F F F"
Si       0.00000000       0.00000000       0.00000000       0.00000000       0.00000000       0.07059082
Si       0.00000000       0.00000000       5.47090909       0.00000000       0.00000000      -0.07059082
2
Properties=species:S:1:pos:R:3:forces:R:3 energy=-1.6770297417212883 pbc="F F F"
Si       0.00000000       0.00000000       0.00000000       0.00000000       0.00000000       0.06761487
Si       0.00000000       0.00000000       5.52969697       0.00000000       0.00000000      -0.06761487
2
Properties=species:S:1:pos:R:3:forces:R:3 energy=-1.6731976136588274 pbc="F F F"
Si       0.00000000       0.00000000       0.00000000       0.00000000       0.00000000       0.06183922
Si       0.00000000       0.00000000       5.58848485       0.00000000       0.00000000      -0.06183922
2
Properties=species:S:1:pos:R:3:forces:R:3 energy=-1.6698474214241068 pbc="F F F"
Si       0.00000000       0.00000000       0.00000000       0.00000000       0.00000000       0.05193062
Si       0.00000000       0.00000000       5.64727273       0.00000000       0.00000000      -0.05193062
2
Properties=species:S:1:pos:R:3:forces:R:3 energy=-1.6670436999121134 pbc="F F F"
Si       0.00000000       0.00000000       0.00000000       0.00000000       0.00000000       0.04456525
Si       0.00000000       0.00000000       5.70606061       0.00000000       0.00000000      -0.04456525
2
Properties=species:S:1:pos:R:3:forces:R:3 energy=-1.6644337043630704 pbc="F F F"
Si       0.00000000       0.00000000       0.00000000       0.00000000       0.00000000       0.04508793
Si       0.00000000       0.00000000       5.76484848       0.00000000       0.00000000      -0.04508793
2
Properties=species:S:1:pos:R:3:forces:R:3 energy=-1.6617932522762688 pbc="F F F"
Si       0.00000000       0.00000000       0.00000000       0.00000000       0.00000000       0.04290022
Si       0.00000000       0.00000000       5.82363636       0.00000000       0.00000000      -0.04290022
2
Properties=species:S:1:pos:R:3:forces:R:3 energy=-1.6596563940050746 pbc="F F F"
Si       0.00000000       0.00000000       0.00000000       0.00000000       0.00000000       0.02847317
Si       0.00000000       0.00000000       5.88242424       0.00000000       0.00000000      -0.02847317
2
Properties=species:S:1:pos:R:3:forces:R:3 energy=-1.6584833532986638 pbc="F F F"
Si       0.00000000       0.00000000       0.00000000       0.00000000       0.00000000       0.01213064
Si       0.00000000       0.00000000       5.94121212       0.00000000       0.00000000      -0.01213064
2
Properties=species:S:1:pos:R:3:forces:R:3 energy=-1.658035731616598 pbc="F F F"
Si       0.00000000       0.00000000       0.00000000       0.00000000       0.00000000       0.00526128
Si       0.00000000       0.00000000       6.00000000       0.00000000       0.00000000      -0.00526128
