2
Properties=species:S:1:pos:R:3:forces:R:3 energy=-1047938.3245302546 pbc="F F F"
Sm       0.00000000       0.00000000       0.00000000       0.00000000       0.00000000 -121387.02343750
Sm       0.00000000       0.00000000       0.18000000       0.00000000       0.00000000  121387.02343750
2
Properties=species:S:1:pos:R:3:forces:R:3 energy=-1046851.8245302546 pbc="F F F"
Sm       0.00000000       0.00000000       0.00000000       0.00000000       0.00000000  146248.71875000
Sm       0.00000000       0.00000000       0.23878788       0.00000000       0.00000000 -146248.71875000
2
Properties=species:S:1:pos:R:3:forces:R:3 energy=-1030207.1370302546 pbc="F F F"
Sm       0.00000000       0.00000000       0.00000000       0.00000000       0.00000000  434287.75000000
Sm       0.00000000       0.00000000       0.29757576       0.00000000       0.00000000 -434287.75000000
2
Properties=species:S:1:pos:R:3:forces:R:3 energy=-993507.4495302546 pbc="F F F"
Sm       0.00000000       0.00000000       0.00000000       0.00000000       0.00000000  836066.50000000
Sm       0.00000000       0.00000000       0.35636364       0.00000000       0.00000000 -836066.50000000
2
Properties=species:S:1:pos:R:3:forces:R:3 energy=-929321.9495302546 pbc="F F F"
Sm       0.00000000       0.00000000       0.00000000       0.00000000       0.00000000 1367400.75000000
Sm       0.00000000       0.00000000       0.41515152       0.00000000       0.00000000 -1367400.75000000
2
Properties=species:S:1:pos:R:3:forces:R:3 energy=-831116.0745302292 pbc="F F F"
Sm       0.00000000       0.00000000       0.00000000       0.00000000       0.00000000 1979467.75000000
Sm       0.00000000       0.00000000       0.47393939       0.00000000       0.00000000 -1979467.75000000
2
Properties=species:S:1:pos:R:3:forces:R:3 energy=-697385.0745302292 pbc="F F F"
Sm       0.00000000       0.00000000       0.00000000       0.00000000       0.00000000 2548152.75000000
Sm       0.00000000       0.00000000       0.53272727       0.00000000       0.00000000 -2548152.75000000
2
Properties=species:S:1:pos:R:3:forces:R:3 energy=-535970.512030204 pbc="F F F"
Sm       0.00000000       0.00000000       0.00000000       0.00000000       0.00000000 2889018.50000000
Sm       0.00000000       0.00000000       0.59151515       0.00000000       0.00000000 -2889018.50000000
2
Properties=species:S:1:pos:R:3:forces:R:3 energy=-365699.2620301532 pbc="F F F"
Sm       0.00000000       0.00000000       0.00000000       0.00000000       0.00000000 2826794.00000000
Sm       0.00000000       0.00000000       0.65030303       0.00000000       0.00000000 -2826794.00000000
2
Properties=species:S:1:pos:R:3:forces:R:3 energy=-212612.69953007717 pbc="F F F"
Sm       0.00000000       0.00000000       0.00000000       0.00000000       0.00000000 2312647.75000000
Sm       0.00000000       0.00000000       0.70909091       0.00000000       0.00000000 -2312647.75000000
2
Properties=species:S:1:pos:R:3:forces:R:3 energy=-98441.06671745046 pbc="F F F"
Sm       0.00000000       0.00000000       0.00000000       0.00000000       0.00000000 1521938.62500000
Sm       0.00000000       0.00000000       0.76787879       0.00000000       0.00000000 -1521938.62500000
2
Properties=species:S:1:pos:R:3:forces:R:3 energy=-33343.9026547984 pbc="F F F"
Sm       0.00000000       0.00000000       0.00000000       0.00000000       0.00000000  726716.00000000
Sm       0.00000000       0.00000000       0.82666667       0.00000000       0.00000000 -726716.00000000
2
Properties=species:S:1:pos:R:3:forces:R:3 energy=-7123.8455256514 pbc="F F F"
Sm       0.00000000       0.00000000       0.00000000       0.00000000       0.00000000  227460.62500000
Sm       0.00000000       0.00000000       0.88545455       0.00000000       0.00000000 -227460.62500000
2
Properties=species:S:1:pos:R:3:forces:R:3 energy=-667.3558402506814 pbc="F F F"
Sm       0.00000000       0.00000000       0.00000000       0.00000000       0.00000000   36625.28906250
Sm       0.00000000       0.00000000       0.94424242       0.00000000       0.00000000  -36625.28906250
2
Properties=species:S:1:pos:R:3:forces:R:3 energy=137.69529239496217 pbc="F F F"
Sm       0.00000000       0.00000000       0.00000000       0.00000000       0.00000000    2939.67065430
Sm       0.00000000       0.00000000       1.00303030       0.00000000       0.00000000   -2939.67065430
2
Properties=species:S:1:pos:R:3:forces:R:3 energy=185.73893315257405 pbc="F F F"
Sm       0.00000000       0.00000000       0.00000000       0.00000000       0.00000000    -275.95693970
Sm       0.00000000       0.00000000       1.06181818       0.00000000       0.00000000     275.95693970
2
Properties=species:S:1:pos:R:3:forces:R:3 energy=158.48504298499688 pbc="F F F"
Sm       0.00000000       0.00000000       0.00000000       0.00000000       0.00000000    -437.75588989
Sm       0.00000000       0.00000000       1.12060606       0.00000000       0.00000000     437.75588989
2
Properties=species:S:1:pos:R:3:forces:R:3 energy=130.97192150346265 pbc="F F F"
Sm       0.00000000       0.00000000       0.00000000       0.00000000       0.00000000    -484.52526855
Sm       0.00000000       0.00000000       1.17939394       0.00000000       0.00000000     484.52526855
2
Properties=species:S:1:pos:R:3:forces:R:3 energy=105.06610015606945 pbc="F F F"
Sm       0.00000000       0.00000000       0.00000000       0.00000000       0.00000000    -392.46221924
Sm       0.00000000       0.00000000       1.23818182       0.00000000       0.00000000     392.46221924
2
Properties=species:S:1:pos:R:3:forces:R:3 energy=84.70463648861957 pbc="F F F"
Sm       0.00000000       0.00000000       0.00000000       0.00000000       0.00000000    -306.23806763
Sm       0.00000000       0.00000000       1.29696970       0.00000000       0.00000000     306.23806763
2
Properties=species:S:1:pos:R:3:forces:R:3 energy=68.3671982280437 pbc="F F F"
Sm       0.00000000       0.00000000       0.00000000       0.00000000       0.00000000    -253.80867004
Sm       0.00000000       0.00000000       1.35575758       0.00000000       0.00000000     253.80867004
2
Properties=species:S:1:pos:R:3:forces:R:3 energy=54.553655839361575 pbc="F F F"
Sm       0.00000000       0.00000000       0.00000000       0.00000000       0.00000000    -217.51356506
Sm       0.00000000       0.00000000       1.41454545       0.00000000       0.00000000     217.51356506
2
Properties=species:S:1:pos:R:3:forces:R:3 energy=42.75053586251613 pbc="F F F"
Sm       0.00000000       0.00000000       0.00000000       0.00000000       0.00000000    -183.59326172
Sm       0.00000000       0.00000000       1.47333333       0.00000000       0.00000000     183.59326172
2
Properties=species:S:1:pos:R:3:forces:R:3 energy=33.01351014145738 pbc="F F F"
Sm       0.00000000       0.00000000       0.00000000       0.00000000       0.00000000    -147.95883179
Sm       0.00000000       0.00000000       1.53212121       0.00000000       0.00000000     147.95883179
2
Properties=species:S:1:pos:R:3:forces:R:3 energy=25.225444734002494 pbc="F F F"
Sm       0.00000000       0.00000000       0.00000000       0.00000000       0.00000000    -118.37377167
Sm       0.00000000       0.00000000       1.59090909       0.00000000       0.00000000     118.37377167
2
Properties=species:S:1:pos:R:3:forces:R:3 energy=18.99403062870675 pbc="F F F"
Sm       0.00000000       0.00000000       0.00000000       0.00000000       0.00000000     -93.89600372
Sm       0.00000000       0.00000000       1.64969697       0.00000000       0.00000000      93.89600372
2
Properties=species:S:1:pos:R:3:forces:R:3 energy=14.159471288185467 pbc="F F F"
Sm       0.00000000       0.00000000       0.00000000       0.00000000       0.00000000     -71.13687134
Sm       0.00000000       0.00000000       1.70848485       0.00000000       0.00000000      71.13687134
2
Properties=species:S:1:pos:R:3:forces:R:3 energy=10.517504207062368 pbc="F F F"
Sm       0.00000000       0.00000000       0.00000000       0.00000000       0.00000000     -53.89421463
Sm       0.00000000       0.00000000       1.76727273       0.00000000       0.00000000      53.89421463
2
Properties=species:S:1:pos:R:3:forces:R:3 energy=7.707325557800091 pbc="F F F"
Sm       0.00000000       0.00000000       0.00000000       0.00000000       0.00000000     -42.45811081
Sm       0.00000000       0.00000000       1.82606061       0.00000000       0.00000000      42.45811081
2
Properties=species:S:1:pos:R:3:forces:R:3 energy=5.462422246198676 pbc="F F F"
Sm       0.00000000       0.00000000       0.00000000       0.00000000       0.00000000     -34.29314041
Sm       0.00000000       0.00000000       1.88484848       0.00000000       0.00000000      34.29314041
2
Properties=species:S:1:pos:R:3:forces:R:3 energy=3.6413544485896767 pbc="F F F"
Sm       0.00000000       0.00000000       0.00000000       0.00000000       0.00000000     -27.88809013
Sm       0.00000000       0.00000000       1.94363636       0.00000000       0.00000000      27.88809013
2
Properties=species:S:1:pos:R:3:forces:R:3 energy=2.1611259129423925 pbc="F F F"
Sm       0.00000000       0.00000000       0.00000000       0.00000000       0.00000000     -22.63030243
Sm       0.00000000       0.00000000       2.00242424       0.00000000       0.00000000      22.63030243
2
Properties=species:S:1:pos:R:3:forces:R:3 energy=0.964336767459886 pbc="F F F"
Sm       0.00000000       0.00000000       0.00000000       0.00000000       0.00000000     -18.20546532
Sm       0.00000000       0.00000000       2.06121212       0.00000000       0.00000000      18.20546532
2
Properties=species:S:1:pos:R:3:forces:R:3 energy=0.008078514438544848 pbc="F F F"
Sm       0.00000000       0.00000000       0.00000000       0.00000000       0.00000000     -14.42198944
Sm       0.00000000       0.00000000       2.12000000       0.00000000       0.00000000      14.42198944
2
Properties=species:S:1:pos:R:3:forces:R:3 energy=-0.7414365218724235 pbc="F F F"
Sm       0.00000000       0.00000000       0.00000000       0.00000000       0.00000000     -11.15629959
Sm       0.00000000       0.00000000       2.17878788       0.00000000       0.00000000      11.15629959
2
Properties=species:S:1:pos:R:3:forces:R:3 energy=-1.3126612316219703 pbc="F F F"
Sm       0.00000000       0.00000000       0.00000000       0.00000000       0.00000000      -8.35356331
Sm       0.00000000       0.00000000       2.23757576       0.00000000       0.00000000       8.35356331
2
Properties=species:S:1:pos:R:3:forces:R:3 energy=-1.7328141612898835 pbc="F F F"
Sm       0.00000000       0.00000000       0.00000000       0.00000000       0.00000000      -6.02045870
Sm       0.00000000       0.00000000       2.29636364       0.00000000       0.00000000       6.02045870
2
Properties=species:S:1:pos:R:3:forces:R:3 energy=-2.030052959044657 pbc="F F F"
Sm       0.00000000       0.00000000       0.00000000       0.00000000       0.00000000      -4.17284346
Sm       0.00000000       0.00000000       2.35515152       0.00000000       0.00000000       4.17284346
2
Properties=species:S:1:pos:R:3:forces:R:3 energy=-2.232762316066224 pbc="F F F"
Sm       0.00000000       0.00000000       0.00000000       0.00000000       0.00000000      -2.79973602
Sm       0.00000000       0.00000000       2.41393939       0.00000000       0.00000000       2.79973602
2
Properties=species:S:1:pos:R:3:forces:R:3 energy=-2.367636485123534 pbc="F F F"
Sm       0.00000000       0.00000000       0.00000000       0.00000000       0.00000000      -1.85395527
Sm       0.00000000       0.00000000       2.47272727       0.00000000       0.00000000       1.85395527
2
Properties=species:S:1:pos:R:3:forces:R:3 energy=-2.4574593398419595 pbc="F F F"
Sm       0.00000000       0.00000000       0.00000000       0.00000000       0.00000000      -1.25030804
Sm       0.00000000       0.00000000       2.53151515       0.00000000       0.00000000       1.25030804
2
Properties=species:S:1:pos:R:3:forces:R:3 energy=-2.5192940751034683 pbc="F F F"
Sm       0.00000000       0.00000000       0.00000000       0.00000000       0.00000000      -0.88457376
Sm       0.00000000       0.00000000       2.59030303       0.00000000       0.00000000       0.88457376
2
Properties=species:S:1:pos:R:3:forces:R:3 energy=-2.564316889912812 pbc="F F F"
Sm       0.00000000       0.00000000       0.00000000       0.00000000       0.00000000      -0.66543078
Sm       0.00000000       0.00000000       2.64909091       0.00000000       0.00000000       0.66543078
2
Properties=species:S:1:pos:R:3:forces:R:3 energy=-2.5991529757450267 pbc="F F F"
Sm       0.00000000       0.00000000       0.00000000       0.00000000       0.00000000      -0.52970940
Sm       0.00000000       0.00000000       2.70787879       0.00000000       0.00000000       0.52970940
2
Properties=species:S:1:pos:R:3:forces:R:3 energy=-2.6274307879333603 pbc="F F F"
Sm       0.00000000       0.00000000       0.00000000       0.00000000       0.00000000      -0.43685088
Sm       0.00000000       0.00000000       2.76666667       0.00000000       0.00000000       0.43685088
2
Properties=species:S:1:pos:R:3:forces:R:3 energy=-2.6507945736967584 pbc="F F F"
Sm       0.00000000       0.00000000       0.00000000       0.00000000       0.00000000      -0.35844103
Sm       0.00000000       0.00000000       2.82545455       0.00000000       0.00000000       0.35844103
2
Properties=species:S:1:pos:R:3:forces:R:3 energy=-2.6694318680784335 pbc="F F F"
Sm       0.00000000       0.00000000       0.00000000       0.00000000       0.00000000      -0.27287531
Sm       0.00000000       0.00000000       2.88424242       0.00000000       0.00000000       0.27287531
2
Properties=species:S:1:pos:R:3:forces:R:3 energy=-2.6824425508991205 pbc="F F F"
Sm       0.00000000       0.00000000       0.00000000       0.00000000       0.00000000      -0.16529721
Sm       0.00000000       0.00000000       2.94303030       0.00000000       0.00000000       0.16529721
2
Properties=species:S:1:pos:R:3:forces:R:3 energy=-2.688303501561074 pbc="F F F"
Sm       0.00000000       0.00000000       0.00000000       0.00000000       0.00000000      -0.02937912
Sm       0.00000000       0.00000000       3.00181818       0.00000000       0.00000000       0.02937912
2
Properties=species:S:1:pos:R:3:forces:R:3 energy=-2.685391575369018 pbc="F F F"
Sm       0.00000000       0.00000000       0.00000000       0.00000000       0.00000000       0.13202001
Sm       0.00000000       0.00000000       3.06060606       0.00000000       0.00000000      -0.13202001
2
Properties=species:S:1:pos:R:3:forces:R:3 energy=-2.67248489643169 pbc="F F F"
Sm       0.00000000       0.00000000       0.00000000       0.00000000       0.00000000       0.30842835
Sm       0.00000000       0.00000000       3.11939394       0.00000000       0.00000000      -0.30842835
2
Properties=species:S:1:pos:R:3:forces:R:3 energy=-2.6491157701799684 pbc="F F F"
Sm       0.00000000       0.00000000       0.00000000       0.00000000       0.00000000       0.48546076
Sm       0.00000000       0.00000000       3.17818182       0.00000000       0.00000000      -0.48546076
2
Properties=species:S:1:pos:R:3:forces:R:3 energy=-2.6156681182020893 pbc="F F F"
Sm       0.00000000       0.00000000       0.00000000       0.00000000       0.00000000       0.64930105
Sm       0.00000000       0.00000000       3.23696970       0.00000000       0.00000000      -0.64930105
2
Properties=species:S:1:pos:R:3:forces:R:3 energy=-2.573226523605115 pbc="F F F"
Sm       0.00000000       0.00000000       0.00000000       0.00000000       0.00000000       0.79024541
Sm       0.00000000       0.00000000       3.29575758       0.00000000       0.00000000      -0.79024541
2
Properties=species:S:1:pos:R:3:forces:R:3 energy=-2.5232886095095144 pbc="F F F"
Sm       0.00000000       0.00000000       0.00000000       0.00000000       0.00000000       0.90405756
Sm       0.00000000       0.00000000       3.35454545       0.00000000       0.00000000      -0.90405756
2
Properties=species:S:1:pos:R:3:forces:R:3 energy=-2.4674538521182847 pbc="F F F"
Sm       0.00000000       0.00000000       0.00000000       0.00000000       0.00000000       0.99126452
Sm       0.00000000       0.00000000       3.41333333       0.00000000       0.00000000      -0.99126452
2
Properties=species:S:1:pos:R:3:forces:R:3 energy=-2.4071931946777094 pbc="F F F"
Sm       0.00000000       0.00000000       0.00000000       0.00000000       0.00000000       1.05538738
Sm       0.00000000       0.00000000       3.47212121       0.00000000       0.00000000      -1.05538738
2
Properties=species:S:1:pos:R:3:forces:R:3 energy=-2.343726348272238 pbc="F F F"
Sm       0.00000000       0.00000000       0.00000000       0.00000000       0.00000000       1.10111725
Sm       0.00000000       0.00000000       3.53090909       0.00000000       0.00000000      -1.10111725
2
Properties=species:S:1:pos:R:3:forces:R:3 energy=-2.278000410180098 pbc="F F F"
Sm       0.00000000       0.00000000       0.00000000       0.00000000       0.00000000       1.13288641
Sm       0.00000000       0.00000000       3.58969697       0.00000000       0.00000000      -1.13288641
2
Properties=species:S:1:pos:R:3:forces:R:3 energy=-2.210732829902688 pbc="F F F"
Sm       0.00000000       0.00000000       0.00000000       0.00000000       0.00000000       1.15405798
Sm       0.00000000       0.00000000       3.64848485       0.00000000       0.00000000      -1.15405798
2
Properties=species:S:1:pos:R:3:forces:R:3 energy=-2.142480487196074 pbc="F F F"
Sm       0.00000000       0.00000000       0.00000000       0.00000000       0.00000000       1.16662800
Sm       0.00000000       0.00000000       3.70727273       0.00000000       0.00000000      -1.16662800
2
Properties=species:S:1:pos:R:3:forces:R:3 energy=-2.073718458901112 pbc="F F F"
Sm       0.00000000       0.00000000       0.00000000       0.00000000       0.00000000       1.17136383
Sm       0.00000000       0.00000000       3.76606061       0.00000000       0.00000000      -1.17136383
2
Properties=species:S:1:pos:R:3:forces:R:3 energy=-2.0049093860786806 pbc="F F F"
Sm       0.00000000       0.00000000       0.00000000       0.00000000       0.00000000       1.16826177
Sm       0.00000000       0.00000000       3.82484848       0.00000000       0.00000000      -1.16826177
2
Properties=species:S:1:pos:R:3:forces:R:3 energy=-1.936515595343346 pbc="F F F"
Sm       0.00000000       0.00000000       0.00000000       0.00000000       0.00000000       1.15715265
Sm       0.00000000       0.00000000       3.88363636       0.00000000       0.00000000      -1.15715265
2
Properties=species:S:1:pos:R:3:forces:R:3 energy=-1.8690092264852847 pbc="F F F"
Sm       0.00000000       0.00000000       0.00000000       0.00000000       0.00000000       1.13823414
Sm       0.00000000       0.00000000       3.94242424       0.00000000       0.00000000      -1.13823414
2
Properties=species:S:1:pos:R:3:forces:R:3 energy=-1.8028259159094926 pbc="F F F"
Sm       0.00000000       0.00000000       0.00000000       0.00000000       0.00000000       1.11235571
Sm       0.00000000       0.00000000       4.00121212       0.00000000       0.00000000      -1.11235571
2
Properties=species:S:1:pos:R:3:forces:R:3 energy=-1.7383331376499203 pbc="F F F"
Sm       0.00000000       0.00000000       0.00000000       0.00000000       0.00000000       1.08092523
Sm       0.00000000       0.00000000       4.06000000       0.00000000       0.00000000      -1.08092523
2
Properties=species:S:1:pos:R:3:forces:R:3 energy=-1.6758104779838499 pbc="F F F"
Sm       0.00000000       0.00000000       0.00000000       0.00000000       0.00000000       1.04563046
Sm       0.00000000       0.00000000       4.11878788       0.00000000       0.00000000      -1.04563046
2
Properties=species:S:1:pos:R:3:forces:R:3 energy=-1.6154363220053312 pbc="F F F"
Sm       0.00000000       0.00000000       0.00000000       0.00000000       0.00000000       1.00806403
Sm       0.00000000       0.00000000       4.17757576       0.00000000       0.00000000      -1.00806403
2
Properties=species:S:1:pos:R:3:forces:R:3 energy=-1.557304593610873 pbc="F F F"
Sm       0.00000000       0.00000000       0.00000000       0.00000000       0.00000000       0.96952623
Sm       0.00000000       0.00000000       4.23636364       0.00000000       0.00000000      -0.96952623
2
Properties=species:S:1:pos:R:3:forces:R:3 energy=-1.5014425481938563 pbc="F F F"
Sm       0.00000000       0.00000000       0.00000000       0.00000000       0.00000000       0.93094552
Sm       0.00000000       0.00000000       4.29515152       0.00000000       0.00000000      -0.93094552
2
Properties=species:S:1:pos:R:3:forces:R:3 energy=-1.4478371835898711 pbc="F F F"
Sm       0.00000000       0.00000000       0.00000000       0.00000000       0.00000000       0.89294291
Sm       0.00000000       0.00000000       4.35393939       0.00000000       0.00000000      -0.89294291
2
Properties=species:S:1:pos:R:3:forces:R:3 energy=-1.3964361355622832 pbc="F F F"
Sm       0.00000000       0.00000000       0.00000000       0.00000000       0.00000000       0.85594124
Sm       0.00000000       0.00000000       4.41272727       0.00000000       0.00000000      -0.85594124
2
Properties=species:S:1:pos:R:3:forces:R:3 energy=-1.3471726939140578 pbc="F F F"
Sm       0.00000000       0.00000000       0.00000000       0.00000000       0.00000000       0.82025844
Sm       0.00000000       0.00000000       4.47151515       0.00000000       0.00000000      -0.82025844
2
Properties=species:S:1:pos:R:3:forces:R:3 energy=-1.2999617822180896 pbc="F F F"
Sm       0.00000000       0.00000000       0.00000000       0.00000000       0.00000000       0.78616112
Sm       0.00000000       0.00000000       4.53030303       0.00000000       0.00000000      -0.78616112
2
Properties=species:S:1:pos:R:3:forces:R:3 energy=-1.2547045056091854 pbc="F F F"
Sm       0.00000000       0.00000000       0.00000000       0.00000000       0.00000000       0.75384063
Sm       0.00000000       0.00000000       4.58909091       0.00000000       0.00000000      -0.75384063
2
Properties=species:S:1:pos:R:3:forces:R:3 energy=-1.2112925005072395 pbc="F F F"
Sm       0.00000000       0.00000000       0.00000000       0.00000000       0.00000000       0.72339219
Sm       0.00000000       0.00000000       4.64787879       0.00000000       0.00000000      -0.72339219
2
Properties=species:S:1:pos:R:3:forces:R:3 energy=-1.1696150491607404 pbc="F F F"
Sm       0.00000000       0.00000000       0.00000000       0.00000000       0.00000000       0.69473964
Sm       0.00000000       0.00000000       4.70666667       0.00000000       0.00000000      -0.69473964
2
Properties=species:S:1:pos:R:3:forces:R:3 energy=-1.1295762026029088 pbc="F F F"
Sm       0.00000000       0.00000000       0.00000000       0.00000000       0.00000000       0.66766500
Sm       0.00000000       0.00000000       4.76545455       0.00000000       0.00000000      -0.66766500
2
Properties=species:S:1:pos:R:3:forces:R:3 energy=-1.091087998393481 pbc="F F F"
Sm       0.00000000       0.00000000       0.00000000       0.00000000       0.00000000       0.64189726
Sm       0.00000000       0.00000000       4.82424242       0.00000000       0.00000000      -0.64189726
2
Properties=species:S:1:pos:R:3:forces:R:3 energy=-1.0540836623395797 pbc="F F F"
Sm       0.00000000       0.00000000       0.00000000       0.00000000       0.00000000       0.61731678
Sm       0.00000000       0.00000000       4.88303030       0.00000000       0.00000000      -0.61731678
2
Properties=species:S:1:pos:R:3:forces:R:3 energy=-1.0184773462661165 pbc="F F F"
Sm       0.00000000       0.00000000       0.00000000       0.00000000       0.00000000       0.59426826
Sm       0.00000000       0.00000000       4.94181818       0.00000000       0.00000000      -0.59426826
2
Properties=species:S:1:pos:R:3:forces:R:3 energy=-0.9841608091626153 pbc="F F F"
Sm       0.00000000       0.00000000       0.00000000       0.00000000       0.00000000       0.57369715
Sm       0.00000000       0.00000000       5.00060606       0.00000000       0.00000000      -0.57369715
2
Properties=species:S:1:pos:R:3:forces:R:3 energy=-0.9509460570921133 pbc="F F F"
Sm       0.00000000       0.00000000       0.00000000       0.00000000       0.00000000       0.55705452
Sm       0.00000000       0.00000000       5.05939394       0.00000000       0.00000000      -0.55705452
2
Properties=species:S:1:pos:R:3:forces:R:3 energy=-0.918561328337123 pbc="F F F"
Sm       0.00000000       0.00000000       0.00000000       0.00000000       0.00000000       0.54559934
Sm       0.00000000       0.00000000       5.11818182       0.00000000       0.00000000      -0.54559934
2
Properties=species:S:1:pos:R:3:forces:R:3 energy=-0.8866998575026552 pbc="F F F"
Sm       0.00000000       0.00000000       0.00000000       0.00000000       0.00000000       0.53906620
Sm       0.00000000       0.00000000       5.17696970       0.00000000       0.00000000      -0.53906620
2
Properties=species:S:1:pos:R:3:forces:R:3 energy=-0.8551538782610103 pbc="F F F"
Sm       0.00000000       0.00000000       0.00000000       0.00000000       0.00000000       0.53388333
Sm       0.00000000       0.00000000       5.23575758       0.00000000       0.00000000      -0.53388333
2
Properties=species:S:1:pos:R:3:forces:R:3 energy=-0.8240546132424234 pbc="F F F"
Sm       0.00000000       0.00000000       0.00000000       0.00000000       0.00000000       0.52231055
Sm       0.00000000       0.00000000       5.29454545       0.00000000       0.00000000      -0.52231055
2
Properties=species:S:1:pos:R:3:forces:R:3 energy=-0.7940221949718088 pbc="F F F"
Sm       0.00000000       0.00000000       0.00000000       0.00000000       0.00000000       0.49692935
Sm       0.00000000       0.00000000       5.35333333       0.00000000       0.00000000      -0.49692935
2
Properties=species:S:1:pos:R:3:forces:R:3 energy=-0.7657629097804167 pbc="F F F"
Sm       0.00000000       0.00000000       0.00000000       0.00000000       0.00000000       0.46536011
Sm       0.00000000       0.00000000       5.41212121       0.00000000       0.00000000      -0.46536011
2
Properties=species:S:1:pos:R:3:forces:R:3 energy=-0.7389256789440186 pbc="F F F"
Sm       0.00000000       0.00000000       0.00000000       0.00000000       0.00000000       0.45200562
Sm       0.00000000       0.00000000       5.47090909       0.00000000       0.00000000      -0.45200562
2
Properties=species:S:1:pos:R:3:forces:R:3 energy=-0.7123836742063849 pbc="F F F"
Sm       0.00000000       0.00000000       0.00000000       0.00000000       0.00000000       0.44893306
Sm       0.00000000       0.00000000       5.52969697       0.00000000       0.00000000      -0.44893306
2
Properties=species:S:1:pos:R:3:forces:R:3 energy=-0.686756602612494 pbc="F F F"
Sm       0.00000000       0.00000000       0.00000000       0.00000000       0.00000000       0.41687724
Sm       0.00000000       0.00000000       5.58848485       0.00000000       0.00000000      -0.41687724
2
Properties=species:S:1:pos:R:3:forces:R:3 energy=-0.6638115021825584 pbc="F F F"
Sm       0.00000000       0.00000000       0.00000000       0.00000000       0.00000000       0.36367473
Sm       0.00000000       0.00000000       5.64727273       0.00000000       0.00000000      -0.36367473
2
Properties=species:S:1:pos:R:3:forces:R:3 energy=-0.6434531933554571 pbc="F F F"
Sm       0.00000000       0.00000000       0.00000000       0.00000000       0.00000000       0.33827072
Sm       0.00000000       0.00000000       5.70606061       0.00000000       0.00000000      -0.33827072
2
Properties=species:S:1:pos:R:3:forces:R:3 energy=-0.6228976069152117 pbc="F F F"
Sm       0.00000000       0.00000000       0.00000000       0.00000000       0.00000000       0.36448067
Sm       0.00000000       0.00000000       5.76484848       0.00000000       0.00000000      -0.36448067
2
Properties=species:S:1:pos:R:3:forces:R:3 energy=-0.6013373185538468 pbc="F F F"
Sm       0.00000000       0.00000000       0.00000000       0.00000000       0.00000000       0.35364109
Sm       0.00000000       0.00000000       5.82363636       0.00000000       0.00000000      -0.35364109
2
Properties=species:S:1:pos:R:3:forces:R:3 energy=-0.5835725016882012 pbc="F F F"
Sm       0.00000000       0.00000000       0.00000000       0.00000000       0.00000000       0.23787981
Sm       0.00000000       0.00000000       5.88242424       0.00000000       0.00000000      -0.23787981
2
Properties=species:S:1:pos:R:3:forces:R:3 energy=-0.5738264813986121 pbc="F F F"
Sm       0.00000000       0.00000000       0.00000000       0.00000000       0.00000000       0.09885412
Sm       0.00000000       0.00000000       5.94121212       0.00000000       0.00000000      -0.09885412
2
Properties=species:S:1:pos:R:3:forces:R:3 energy=-0.5702848101435936 pbc="F F F"
Sm       0.00000000       0.00000000       0.00000000       0.00000000       0.00000000       0.04060670
Sm       0.00000000       0.00000000       6.00000000       0.00000000       0.00000000      -0.04060670
