2
Properties=species:S:1:pos:R:3:forces:R:3 energy=9664.856269475944 pbc="F F F"
Sn       0.00000000       0.00000000       0.00000000       0.00000000       0.00000000 -145188.67187500
Sn       0.00000000       0.00000000       0.18000000       0.00000000       0.00000000  145188.67187500
2
Properties=species:S:1:pos:R:3:forces:R:3 energy=4451.123847600944 pbc="F F F"
Sn       0.00000000       0.00000000       0.00000000       0.00000000       0.00000000  -52143.17968750
Sn       0.00000000       0.00000000       0.23878788       0.00000000       0.00000000   52143.17968750
2
Properties=species:S:1:pos:R:3:forces:R:3 energy=2339.9680858885295 pbc="F F F"
Sn       0.00000000       0.00000000       0.00000000       0.00000000       0.00000000  -24837.28125000
Sn       0.00000000       0.00000000       0.29757576       0.00000000       0.00000000   24837.28125000
2
Properties=species:S:1:pos:R:3:forces:R:3 energy=1189.7272411619672 pbc="F F F"
Sn       0.00000000       0.00000000       0.00000000       0.00000000       0.00000000  -15767.03906250
Sn       0.00000000       0.00000000       0.35636364       0.00000000       0.00000000   15767.03906250
2
Properties=species:S:1:pos:R:3:forces:R:3 energy=617.888190875334 pbc="F F F"
Sn       0.00000000       0.00000000       0.00000000       0.00000000       0.00000000   -5208.97021484
Sn       0.00000000       0.00000000       0.41515152       0.00000000       0.00000000    5208.97021484
2
Properties=species:S:1:pos:R:3:forces:R:3 energy=411.32349361921246 pbc="F F F"
Sn       0.00000000       0.00000000       0.00000000       0.00000000       0.00000000   -2005.47729492
Sn       0.00000000       0.00000000       0.47393939       0.00000000       0.00000000    2005.47729492
2
Properties=species:S:1:pos:R:3:forces:R:3 energy=1147.4276806531059 pbc="F F F"
Sn       0.00000000       0.00000000       0.00000000       0.00000000       0.00000000   13904.72656250
Sn       0.00000000       0.00000000       0.53272727       0.00000000       0.00000000  -13904.72656250
2
Properties=species:S:1:pos:R:3:forces:R:3 energy=1145.1226269770145 pbc="F F F"
Sn       0.00000000       0.00000000       0.00000000       0.00000000       0.00000000   -7722.10156250
Sn       0.00000000       0.00000000       0.59151515       0.00000000       0.00000000    7722.10156250
2
Properties=species:S:1:pos:R:3:forces:R:3 energy=702.1236035965353 pbc="F F F"
Sn       0.00000000       0.00000000       0.00000000       0.00000000       0.00000000   -5893.01904297
Sn       0.00000000       0.00000000       0.65030303       0.00000000       0.00000000    5893.01904297
2
Properties=species:S:1:pos:R:3:forces:R:3 energy=436.16623674821057 pbc="F F F"
Sn       0.00000000       0.00000000       0.00000000       0.00000000       0.00000000   -3367.59545898
Sn       0.00000000       0.00000000       0.70909091       0.00000000       0.00000000    3367.59545898
2
Properties=species:S:1:pos:R:3:forces:R:3 energy=301.8645095895051 pbc="F F F"
Sn       0.00000000       0.00000000       0.00000000       0.00000000       0.00000000   -1551.06469727
Sn       0.00000000       0.00000000       0.76787879       0.00000000       0.00000000    1551.06469727
2
Properties=species:S:1:pos:R:3:forces:R:3 energy=229.49811575244473 pbc="F F F"
Sn       0.00000000       0.00000000       0.00000000       0.00000000       0.00000000   -1038.76708984
Sn       0.00000000       0.00000000       0.82666667       0.00000000       0.00000000    1038.76708984
2
Properties=species:S:1:pos:R:3:forces:R:3 energy=175.85266926654063 pbc="F F F"
Sn       0.00000000       0.00000000       0.00000000       0.00000000       0.00000000    -800.20397949
Sn       0.00000000       0.00000000       0.88545455       0.00000000       0.00000000     800.20397949
2
Properties=species:S:1:pos:R:3:forces:R:3 energy=134.55077453992376 pbc="F F F"
Sn       0.00000000       0.00000000       0.00000000       0.00000000       0.00000000    -603.90405273
Sn       0.00000000       0.00000000       0.94424242       0.00000000       0.00000000     603.90405273
2
Properties=species:S:1:pos:R:3:forces:R:3 energy=104.73545222781955 pbc="F F F"
Sn       0.00000000       0.00000000       0.00000000       0.00000000       0.00000000    -417.49752808
Sn       0.00000000       0.00000000       1.00303030       0.00000000       0.00000000     417.49752808
2
Properties=species:S:1:pos:R:3:forces:R:3 energy=84.13541637017094 pbc="F F F"
Sn       0.00000000       0.00000000       0.00000000       0.00000000       0.00000000    -295.53625488
Sn       0.00000000       0.00000000       1.06181818       0.00000000       0.00000000     295.53625488
2
Properties=species:S:1:pos:R:3:forces:R:3 energy=68.92357961848717 pbc="F F F"
Sn       0.00000000       0.00000000       0.00000000       0.00000000       0.00000000    -227.29940796
Sn       0.00000000       0.00000000       1.12060606       0.00000000       0.00000000     227.29940796
2
Properties=species:S:1:pos:R:3:forces:R:3 energy=57.0652893229959 pbc="F F F"
Sn       0.00000000       0.00000000       0.00000000       0.00000000       0.00000000    -177.82331848
Sn       0.00000000       0.00000000       1.17939394       0.00000000       0.00000000     177.82331848
2
Properties=species:S:1:pos:R:3:forces:R:3 energy=47.82719671012152 pbc="F F F"
Sn       0.00000000       0.00000000       0.00000000       0.00000000       0.00000000    -138.27165222
Sn       0.00000000       0.00000000       1.23818182       0.00000000       0.00000000     138.27165222
2
Properties=species:S:1:pos:R:3:forces:R:3 energy=40.58902065541626 pbc="F F F"
Sn       0.00000000       0.00000000       0.00000000       0.00000000       0.00000000    -109.64166260
Sn       0.00000000       0.00000000       1.29696970       0.00000000       0.00000000     109.64166260
2
Properties=species:S:1:pos:R:3:forces:R:3 energy=34.77431854174458 pbc="F F F"
Sn       0.00000000       0.00000000       0.00000000       0.00000000       0.00000000     -89.39709473
Sn       0.00000000       0.00000000       1.35575758       0.00000000       0.00000000      89.39709473
2
Properties=species:S:1:pos:R:3:forces:R:3 energy=29.930385103015105 pbc="F F F"
Sn       0.00000000       0.00000000       0.00000000       0.00000000       0.00000000     -76.68955994
Sn       0.00000000       0.00000000       1.41454545       0.00000000       0.00000000      76.68955994
2
Properties=species:S:1:pos:R:3:forces:R:3 energy=25.6222153001272 pbc="F F F"
Sn       0.00000000       0.00000000       0.00000000       0.00000000       0.00000000     -70.73723602
Sn       0.00000000       0.00000000       1.47333333       0.00000000       0.00000000      70.73723602
2
Properties=species:S:1:pos:R:3:forces:R:3 energy=21.55863344285117 pbc="F F F"
Sn       0.00000000       0.00000000       0.00000000       0.00000000       0.00000000     -67.61123657
Sn       0.00000000       0.00000000       1.53212121       0.00000000       0.00000000      67.61123657
2
Properties=species:S:1:pos:R:3:forces:R:3 energy=17.68765874896631 pbc="F F F"
Sn       0.00000000       0.00000000       0.00000000       0.00000000       0.00000000     -63.82339859
Sn       0.00000000       0.00000000       1.59090909       0.00000000       0.00000000      63.82339859
2
Properties=species:S:1:pos:R:3:forces:R:3 energy=14.087375422721093 pbc="F F F"
Sn       0.00000000       0.00000000       0.00000000       0.00000000       0.00000000     -58.40621185
Sn       0.00000000       0.00000000       1.64969697       0.00000000       0.00000000      58.40621185
2
Properties=species:S:1:pos:R:3:forces:R:3 energy=10.843046985638704 pbc="F F F"
Sn       0.00000000       0.00000000       0.00000000       0.00000000       0.00000000     -51.84722519
Sn       0.00000000       0.00000000       1.70848485       0.00000000       0.00000000      51.84722519
2
Properties=species:S:1:pos:R:3:forces:R:3 energy=7.998233681207224 pbc="F F F"
Sn       0.00000000       0.00000000       0.00000000       0.00000000       0.00000000     -44.92578888
Sn       0.00000000       0.00000000       1.76727273       0.00000000       0.00000000      44.92578888
2
Properties=species:S:1:pos:R:3:forces:R:3 energy=5.558506721063795 pbc="F F F"
Sn       0.00000000       0.00000000       0.00000000       0.00000000       0.00000000     -38.11745453
Sn       0.00000000       0.00000000       1.82606061       0.00000000       0.00000000      38.11745453
2
Properties=species:S:1:pos:R:3:forces:R:3 energy=3.5091798375179772 pbc="F F F"
Sn       0.00000000       0.00000000       0.00000000       0.00000000       0.00000000     -31.68491554
Sn       0.00000000       0.00000000       1.88484848       0.00000000       0.00000000      31.68491554
2
Properties=species:S:1:pos:R:3:forces:R:3 energy=1.8211379163942782 pbc="F F F"
Sn       0.00000000       0.00000000       0.00000000       0.00000000       0.00000000     -25.86148262
Sn       0.00000000       0.00000000       1.94363636       0.00000000       0.00000000      25.86148262
2
Properties=species:S:1:pos:R:3:forces:R:3 energy=0.4534205617758377 pbc="F F F"
Sn       0.00000000       0.00000000       0.00000000       0.00000000       0.00000000     -20.80292702
Sn       0.00000000       0.00000000       2.00242424       0.00000000       0.00000000      20.80292702
2
Properties=species:S:1:pos:R:3:forces:R:3 energy=-0.6405233363614711 pbc="F F F"
Sn       0.00000000       0.00000000       0.00000000       0.00000000       0.00000000     -16.54474258
Sn       0.00000000       0.00000000       2.06121212       0.00000000       0.00000000      16.54474258
2
Properties=species:S:1:pos:R:3:forces:R:3 energy=-1.5065187525808994 pbc="F F F"
Sn       0.00000000       0.00000000       0.00000000       0.00000000       0.00000000     -13.03461933
Sn       0.00000000       0.00000000       2.12000000       0.00000000       0.00000000      13.03461933
2
Properties=species:S:1:pos:R:3:forces:R:3 energy=-2.1858646170067466 pbc="F F F"
Sn       0.00000000       0.00000000       0.00000000       0.00000000       0.00000000     -10.17664719
Sn       0.00000000       0.00000000       2.17878788       0.00000000       0.00000000      10.17664719
2
Properties=species:S:1:pos:R:3:forces:R:3 energy=-2.7137072730925755 pbc="F F F"
Sn       0.00000000       0.00000000       0.00000000       0.00000000       0.00000000      -7.86272097
Sn       0.00000000       0.00000000       2.23757576       0.00000000       0.00000000       7.86272097
2
Properties=species:S:1:pos:R:3:forces:R:3 energy=-3.1189573455648367 pbc="F F F"
Sn       0.00000000       0.00000000       0.00000000       0.00000000       0.00000000      -5.98965263
Sn       0.00000000       0.00000000       2.29636364       0.00000000       0.00000000       5.98965263
2
Properties=species:S:1:pos:R:3:forces:R:3 energy=-3.4248011102611766 pbc="F F F"
Sn       0.00000000       0.00000000       0.00000000       0.00000000       0.00000000      -4.46711922
Sn       0.00000000       0.00000000       2.35515152       0.00000000       0.00000000       4.46711922
2
Properties=species:S:1:pos:R:3:forces:R:3 energy=-3.6495907090910658 pbc="F F F"
Sn       0.00000000       0.00000000       0.00000000       0.00000000       0.00000000      -3.22109699
Sn       0.00000000       0.00000000       2.41393939       0.00000000       0.00000000       3.22109699
2
Properties=species:S:1:pos:R:3:forces:R:3 energy=-3.8078256654729845 pbc="F F F"
Sn       0.00000000       0.00000000       0.00000000       0.00000000       0.00000000      -2.19496369
Sn       0.00000000       0.00000000       2.47272727       0.00000000       0.00000000       2.19496369
2
Properties=species:S:1:pos:R:3:forces:R:3 energy=-3.911157258612882 pbc="F F F"
Sn       0.00000000       0.00000000       0.00000000       0.00000000       0.00000000      -1.34754813
Sn       0.00000000       0.00000000       2.53151515       0.00000000       0.00000000       1.34754813
2
Properties=species:S:1:pos:R:3:forces:R:3 energy=-3.969178538137192 pbc="F F F"
Sn       0.00000000       0.00000000       0.00000000       0.00000000       0.00000000      -0.64909041
Sn       0.00000000       0.00000000       2.59030303       0.00000000       0.00000000       0.64909041
2
Properties=species:S:1:pos:R:3:forces:R:3 energy=-3.9899469177793674 pbc="F F F"
Sn       0.00000000       0.00000000       0.00000000       0.00000000       0.00000000      -0.07687987
Sn       0.00000000       0.00000000       2.64909091       0.00000000       0.00000000       0.07687987
2
Properties=species:S:1:pos:R:3:forces:R:3 energy=-3.980323696107813 pbc="F F F"
Sn       0.00000000       0.00000000       0.00000000       0.00000000       0.00000000       0.38777298
Sn       0.00000000       0.00000000       2.70787879       0.00000000       0.00000000      -0.38777298
2
Properties=species:S:1:pos:R:3:forces:R:3 energy=-3.946152040330959 pbc="F F F"
Sn       0.00000000       0.00000000       0.00000000       0.00000000       0.00000000       0.76063120
Sn       0.00000000       0.00000000       2.76666667       0.00000000       0.00000000      -0.76063120
2
Properties=species:S:1:pos:R:3:forces:R:3 energy=-3.8924375665322075 pbc="F F F"
Sn       0.00000000       0.00000000       0.00000000       0.00000000       0.00000000       1.05451083
Sn       0.00000000       0.00000000       2.82545455       0.00000000       0.00000000      -1.05451083
2
Properties=species:S:1:pos:R:3:forces:R:3 energy=-3.823519036205268 pbc="F F F"
Sn       0.00000000       0.00000000       0.00000000       0.00000000       0.00000000       1.27930820
Sn       0.00000000       0.00000000       2.88424242       0.00000000       0.00000000      -1.27930820
2
Properties=species:S:1:pos:R:3:forces:R:3 energy=-3.7432220528825333 pbc="F F F"
Sn       0.00000000       0.00000000       0.00000000       0.00000000       0.00000000       1.44277501
Sn       0.00000000       0.00000000       2.94303030       0.00000000       0.00000000      -1.44277501
2
Properties=species:S:1:pos:R:3:forces:R:3 energy=-3.654950127377214 pbc="F F F"
Sn       0.00000000       0.00000000       0.00000000       0.00000000       0.00000000       1.55183005
Sn       0.00000000       0.00000000       3.00181818       0.00000000       0.00000000      -1.55183005
2
Properties=species:S:1:pos:R:3:forces:R:3 energy=-3.561689070880588 pbc="F F F"
Sn       0.00000000       0.00000000       0.00000000       0.00000000       0.00000000       1.61381388
Sn       0.00000000       0.00000000       3.06060606       0.00000000       0.00000000      -1.61381388
2
Properties=species:S:1:pos:R:3:forces:R:3 energy=-3.4659666847518547 pbc="F F F"
Sn       0.00000000       0.00000000       0.00000000       0.00000000       0.00000000       1.63698673
Sn       0.00000000       0.00000000       3.11939394       0.00000000       0.00000000      -1.63698673
2
Properties=species:S:1:pos:R:3:forces:R:3 energy=-3.36980293522736 pbc="F F F"
Sn       0.00000000       0.00000000       0.00000000       0.00000000       0.00000000       1.63033128
Sn       0.00000000       0.00000000       3.17818182       0.00000000       0.00000000      -1.63033128
2
Properties=species:S:1:pos:R:3:forces:R:3 energy=-3.274685135488431 pbc="F F F"
Sn       0.00000000       0.00000000       0.00000000       0.00000000       0.00000000       1.60292482
Sn       0.00000000       0.00000000       3.23696970       0.00000000       0.00000000      -1.60292482
2
Properties=species:S:1:pos:R:3:forces:R:3 energy=-3.1815755476282916 pbc="F F F"
Sn       0.00000000       0.00000000       0.00000000       0.00000000       0.00000000       1.56340349
Sn       0.00000000       0.00000000       3.29575758       0.00000000       0.00000000      -1.56340349
2
Properties=species:S:1:pos:R:3:forces:R:3 energy=-3.0909585519567546 pbc="F F F"
Sn       0.00000000       0.00000000       0.00000000       0.00000000       0.00000000       1.51909554
Sn       0.00000000       0.00000000       3.35454545       0.00000000       0.00000000      -1.51909554
2
Properties=species:S:1:pos:R:3:forces:R:3 energy=-3.002972890370432 pbc="F F F"
Sn       0.00000000       0.00000000       0.00000000       0.00000000       0.00000000       1.47427750
Sn       0.00000000       0.00000000       3.41333333       0.00000000       0.00000000      -1.47427750
2
Properties=species:S:1:pos:R:3:forces:R:3 energy=-2.917621248198952 pbc="F F F"
Sn       0.00000000       0.00000000       0.00000000       0.00000000       0.00000000       1.42925107
Sn       0.00000000       0.00000000       3.47212121       0.00000000       0.00000000      -1.42925107
2
Properties=species:S:1:pos:R:3:forces:R:3 energy=-2.834972369784901 pbc="F F F"
Sn       0.00000000       0.00000000       0.00000000       0.00000000       0.00000000       1.38198817
Sn       0.00000000       0.00000000       3.53090909       0.00000000       0.00000000      -1.38198817
2
Properties=species:S:1:pos:R:3:forces:R:3 energy=-2.7552168291373675 pbc="F F F"
Sn       0.00000000       0.00000000       0.00000000       0.00000000       0.00000000       1.33050478
Sn       0.00000000       0.00000000       3.58969697       0.00000000       0.00000000      -1.33050478
2
Properties=species:S:1:pos:R:3:forces:R:3 energy=-2.678637028541991 pbc="F F F"
Sn       0.00000000       0.00000000       0.00000000       0.00000000       0.00000000       1.27389717
Sn       0.00000000       0.00000000       3.64848485       0.00000000       0.00000000      -1.27389717
2
Properties=species:S:1:pos:R:3:forces:R:3 energy=-2.605534690541168 pbc="F F F"
Sn       0.00000000       0.00000000       0.00000000       0.00000000       0.00000000       1.21236038
Sn       0.00000000       0.00000000       3.70727273       0.00000000       0.00000000      -1.21236038
2
Properties=species:S:1:pos:R:3:forces:R:3 energy=-2.5361695405837716 pbc="F F F"
Sn       0.00000000       0.00000000       0.00000000       0.00000000       0.00000000       1.14691591
Sn       0.00000000       0.00000000       3.76606061       0.00000000       0.00000000      -1.14691591
2
Properties=species:S:1:pos:R:3:forces:R:3 energy=-2.4707317384969323 pbc="F F F"
Sn       0.00000000       0.00000000       0.00000000       0.00000000       0.00000000       1.07907903
Sn       0.00000000       0.00000000       3.82484848       0.00000000       0.00000000      -1.07907903
2
Properties=species:S:1:pos:R:3:forces:R:3 energy=-2.409310714032793 pbc="F F F"
Sn       0.00000000       0.00000000       0.00000000       0.00000000       0.00000000       1.01048779
Sn       0.00000000       0.00000000       3.88363636       0.00000000       0.00000000      -1.01048779
2
Properties=species:S:1:pos:R:3:forces:R:3 energy=-2.3519076718610243 pbc="F F F"
Sn       0.00000000       0.00000000       0.00000000       0.00000000       0.00000000       0.94264889
Sn       0.00000000       0.00000000       3.94242424       0.00000000       0.00000000      -0.94264889
2
Properties=species:S:1:pos:R:3:forces:R:3 energy=-2.2984408229546616 pbc="F F F"
Sn       0.00000000       0.00000000       0.00000000       0.00000000       0.00000000       0.87676132
Sn       0.00000000       0.00000000       4.00121212       0.00000000       0.00000000      -0.87676132
2
Properties=species:S:1:pos:R:3:forces:R:3 energy=-2.248767263422717 pbc="F F F"
Sn       0.00000000       0.00000000       0.00000000       0.00000000       0.00000000       0.81367123
Sn       0.00000000       0.00000000       4.06000000       0.00000000       0.00000000      -0.81367123
2
Properties=species:S:1:pos:R:3:forces:R:3 energy=-2.2027069500886896 pbc="F F F"
Sn       0.00000000       0.00000000       0.00000000       0.00000000       0.00000000       0.75391746
Sn       0.00000000       0.00000000       4.11878788       0.00000000       0.00000000      -0.75391746
2
Properties=species:S:1:pos:R:3:forces:R:3 energy=-2.1600532716075858 pbc="F F F"
Sn       0.00000000       0.00000000       0.00000000       0.00000000       0.00000000       0.69780385
Sn       0.00000000       0.00000000       4.17757576       0.00000000       0.00000000      -0.69780385
2
Properties=species:S:1:pos:R:3:forces:R:3 energy=-2.120587165015322 pbc="F F F"
Sn       0.00000000       0.00000000       0.00000000       0.00000000       0.00000000       0.64548969
Sn       0.00000000       0.00000000       4.23636364       0.00000000       0.00000000      -0.64548969
2
Properties=species:S:1:pos:R:3:forces:R:3 energy=-2.0840827640827952 pbc="F F F"
Sn       0.00000000       0.00000000       0.00000000       0.00000000       0.00000000       0.59704143
Sn       0.00000000       0.00000000       4.29515152       0.00000000       0.00000000      -0.59704143
2
Properties=species:S:1:pos:R:3:forces:R:3 energy=-2.050313966498228 pbc="F F F"
Sn       0.00000000       0.00000000       0.00000000       0.00000000       0.00000000       0.55248100
Sn       0.00000000       0.00000000       4.35393939       0.00000000       0.00000000      -0.55248100
2
Properties=species:S:1:pos:R:3:forces:R:3 energy=-2.0190499482636755 pbc="F F F"
Sn       0.00000000       0.00000000       0.00000000       0.00000000       0.00000000       0.51176083
Sn       0.00000000       0.00000000       4.41272727       0.00000000       0.00000000      -0.51176083
2
Properties=species:S:1:pos:R:3:forces:R:3 energy=-1.9900697282351523 pbc="F F F"
Sn       0.00000000       0.00000000       0.00000000       0.00000000       0.00000000       0.47475505
Sn       0.00000000       0.00000000       4.47151515       0.00000000       0.00000000      -0.47475505
2
Properties=species:S:1:pos:R:3:forces:R:3 energy=-1.9631613665037808 pbc="F F F"
Sn       0.00000000       0.00000000       0.00000000       0.00000000       0.00000000       0.44122177
Sn       0.00000000       0.00000000       4.53030303       0.00000000       0.00000000      -0.44122177
2
Properties=species:S:1:pos:R:3:forces:R:3 energy=-1.938132574854478 pbc="F F F"
Sn       0.00000000       0.00000000       0.00000000       0.00000000       0.00000000       0.41076076
Sn       0.00000000       0.00000000       4.58909091       0.00000000       0.00000000      -0.41076076
2
Properties=species:S:1:pos:R:3:forces:R:3 energy=-1.9148170602008794 pbc="F F F"
Sn       0.00000000       0.00000000       0.00000000       0.00000000       0.00000000       0.38282573
Sn       0.00000000       0.00000000       4.64787879       0.00000000       0.00000000      -0.38282573
2
Properties=species:S:1:pos:R:3:forces:R:3 energy=-1.8930849484785546 pbc="F F F"
Sn       0.00000000       0.00000000       0.00000000       0.00000000       0.00000000       0.35674775
Sn       0.00000000       0.00000000       4.70666667       0.00000000       0.00000000      -0.35674775
2
Properties=species:S:1:pos:R:3:forces:R:3 energy=-1.8728487185989549 pbc="F F F"
Sn       0.00000000       0.00000000       0.00000000       0.00000000       0.00000000       0.33185014
Sn       0.00000000       0.00000000       4.76545455       0.00000000       0.00000000      -0.33185014
2
Properties=species:S:1:pos:R:3:forces:R:3 energy=-1.8540555857261711 pbc="F F F"
Sn       0.00000000       0.00000000       0.00000000       0.00000000       0.00000000       0.30755115
Sn       0.00000000       0.00000000       4.82424242       0.00000000       0.00000000      -0.30755115
2
Properties=species:S:1:pos:R:3:forces:R:3 energy=-1.8366836442300283 pbc="F F F"
Sn       0.00000000       0.00000000       0.00000000       0.00000000       0.00000000       0.28354007
Sn       0.00000000       0.00000000       4.88303030       0.00000000       0.00000000      -0.28354007
2
Properties=species:S:1:pos:R:3:forces:R:3 energy=-1.8207113247653823 pbc="F F F"
Sn       0.00000000       0.00000000       0.00000000       0.00000000       0.00000000       0.25989684
Sn       0.00000000       0.00000000       4.94181818       0.00000000       0.00000000      -0.25989684
2
Properties=species:S:1:pos:R:3:forces:R:3 energy=-1.8061071727834894 pbc="F F F"
Sn       0.00000000       0.00000000       0.00000000       0.00000000       0.00000000       0.23714490
Sn       0.00000000       0.00000000       5.00060606       0.00000000       0.00000000      -0.23714490
2
Properties=species:S:1:pos:R:3:forces:R:3 energy=-1.79279338157678 pbc="F F F"
Sn       0.00000000       0.00000000       0.00000000       0.00000000       0.00000000       0.21617265
Sn       0.00000000       0.00000000       5.05939394       0.00000000       0.00000000      -0.21617265
2
Properties=species:S:1:pos:R:3:forces:R:3 energy=-1.7806358012892516 pbc="F F F"
Sn       0.00000000       0.00000000       0.00000000       0.00000000       0.00000000       0.19797349
Sn       0.00000000       0.00000000       5.11818182       0.00000000       0.00000000      -0.19797349
2
Properties=species:S:1:pos:R:3:forces:R:3 energy=-1.769449409872498 pbc="F F F"
Sn       0.00000000       0.00000000       0.00000000       0.00000000       0.00000000       0.18320629
Sn       0.00000000       0.00000000       5.17696970       0.00000000       0.00000000      -0.18320629
2
Properties=species:S:1:pos:R:3:forces:R:3 energy=-1.7590327614025685 pbc="F F F"
Sn       0.00000000       0.00000000       0.00000000       0.00000000       0.00000000       0.17163076
Sn       0.00000000       0.00000000       5.23575758       0.00000000       0.00000000      -0.17163076
2
Properties=species:S:1:pos:R:3:forces:R:3 energy=-1.7492376280637316 pbc="F F F"
Sn       0.00000000       0.00000000       0.00000000       0.00000000       0.00000000       0.16168566
Sn       0.00000000       0.00000000       5.29454545       0.00000000       0.00000000      -0.16168566
2
Properties=species:S:1:pos:R:3:forces:R:3 energy=-1.7400378951982798 pbc="F F F"
Sn       0.00000000       0.00000000       0.00000000       0.00000000       0.00000000       0.15097794
Sn       0.00000000       0.00000000       5.35333333       0.00000000       0.00000000      -0.15097794
2
Properties=species:S:1:pos:R:3:forces:R:3 energy=-1.731514402719823 pbc="F F F"
Sn       0.00000000       0.00000000       0.00000000       0.00000000       0.00000000       0.13896999
Sn       0.00000000       0.00000000       5.41212121       0.00000000       0.00000000      -0.13896999
2
Properties=species:S:1:pos:R:3:forces:R:3 energy=-1.7236476064806696 pbc="F F F"
Sn       0.00000000       0.00000000       0.00000000       0.00000000       0.00000000       0.12944773
Sn       0.00000000       0.00000000       5.47090909       0.00000000       0.00000000      -0.12944773
2
Properties=species:S:1:pos:R:3:forces:R:3 energy=-1.716232566209265 pbc="F F F"
Sn       0.00000000       0.00000000       0.00000000       0.00000000       0.00000000       0.12260783
Sn       0.00000000       0.00000000       5.52969697       0.00000000       0.00000000      -0.12260783
2
Properties=species:S:1:pos:R:3:forces:R:3 energy=-1.7093522570748625 pbc="F F F"
Sn       0.00000000       0.00000000       0.00000000       0.00000000       0.00000000       0.11005283
Sn       0.00000000       0.00000000       5.58848485       0.00000000       0.00000000      -0.11005283
2
Properties=species:S:1:pos:R:3:forces:R:3 energy=-1.703414584755906 pbc="F F F"
Sn       0.00000000       0.00000000       0.00000000       0.00000000       0.00000000       0.09162442
Sn       0.00000000       0.00000000       5.64727273       0.00000000       0.00000000      -0.09162442
2
Properties=species:S:1:pos:R:3:forces:R:3 energy=-1.698508997065212 pbc="F F F"
Sn       0.00000000       0.00000000       0.00000000       0.00000000       0.00000000       0.07687876
Sn       0.00000000       0.00000000       5.70606061       0.00000000       0.00000000      -0.07687876
2
Properties=species:S:1:pos:R:3:forces:R:3 energy=-1.6941505954582825 pbc="F F F"
Sn       0.00000000       0.00000000       0.00000000       0.00000000       0.00000000       0.07243597
Sn       0.00000000       0.00000000       5.76484848       0.00000000       0.00000000      -0.07243597
2
Properties=species:S:1:pos:R:3:forces:R:3 energy=-1.690053647267284 pbc="F F F"
Sn       0.00000000       0.00000000       0.00000000       0.00000000       0.00000000       0.06490374
Sn       0.00000000       0.00000000       5.82363636       0.00000000       0.00000000      -0.06490374
2
Properties=species:S:1:pos:R:3:forces:R:3 energy=-1.6868317814700946 pbc="F F F"
Sn       0.00000000       0.00000000       0.00000000       0.00000000       0.00000000       0.04314750
Sn       0.00000000       0.00000000       5.88242424       0.00000000       0.00000000      -0.04314750
2
Properties=species:S:1:pos:R:3:forces:R:3 energy=-1.6850036113211342 pbc="F F F"
Sn       0.00000000       0.00000000       0.00000000       0.00000000       0.00000000       0.02015061
Sn       0.00000000       0.00000000       5.94121212       0.00000000       0.00000000      -0.02015061
2
Properties=species:S:1:pos:R:3:forces:R:3 energy=-1.6841906114719334 pbc="F F F"
Sn       0.00000000       0.00000000       0.00000000       0.00000000       0.00000000       0.01052490
Sn       0.00000000       0.00000000       6.00000000       0.00000000       0.00000000      -0.01052490
