2
Properties=species:S:1:pos:R:3:forces:R:3 energy=9664.863105413444 pbc="F F F"
Sn       0.00000000       0.00000000       0.00000000       0.00000000       0.00000000 -145188.64062500
Sn       0.00000000       0.00000000       0.18000000       0.00000000       0.00000000  145188.64062500
2
Properties=species:S:1:pos:R:3:forces:R:3 energy=4451.116035100944 pbc="F F F"
Sn       0.00000000       0.00000000       0.00000000       0.00000000       0.00000000  -52143.14843750
Sn       0.00000000       0.00000000       0.23878788       0.00000000       0.00000000   52143.14843750
2
Properties=species:S:1:pos:R:3:forces:R:3 energy=2339.9605175291545 pbc="F F F"
Sn       0.00000000       0.00000000       0.00000000       0.00000000       0.00000000  -24837.23632812
Sn       0.00000000       0.00000000       0.29757576       0.00000000       0.00000000   24837.23632812
2
Properties=species:S:1:pos:R:3:forces:R:3 energy=1189.7349315916547 pbc="F F F"
Sn       0.00000000       0.00000000       0.00000000       0.00000000       0.00000000  -15767.07617188
Sn       0.00000000       0.00000000       0.35636364       0.00000000       0.00000000   15767.07617188
2
Properties=species:S:1:pos:R:3:forces:R:3 energy=617.878425250334 pbc="F F F"
Sn       0.00000000       0.00000000       0.00000000       0.00000000       0.00000000   -5208.92626953
Sn       0.00000000       0.00000000       0.41515152       0.00000000       0.00000000    5208.92626953
2
Properties=species:S:1:pos:R:3:forces:R:3 energy=411.3246227696031 pbc="F F F"
Sn       0.00000000       0.00000000       0.00000000       0.00000000       0.00000000   -2005.44604492
Sn       0.00000000       0.00000000       0.47393939       0.00000000       0.00000000    2005.44604492
2
Properties=species:S:1:pos:R:3:forces:R:3 energy=1147.4276806531059 pbc="F F F"
Sn       0.00000000       0.00000000       0.00000000       0.00000000       0.00000000   13904.70214844
Sn       0.00000000       0.00000000       0.53272727       0.00000000       0.00000000  -13904.70214844
2
Properties=species:S:1:pos:R:3:forces:R:3 energy=1145.1233593988895 pbc="F F F"
Sn       0.00000000       0.00000000       0.00000000       0.00000000       0.00000000   -7722.10839844
Sn       0.00000000       0.00000000       0.59151515       0.00000000       0.00000000    7722.10839844
2
Properties=species:S:1:pos:R:3:forces:R:3 energy=702.1236035965353 pbc="F F F"
Sn       0.00000000       0.00000000       0.00000000       0.00000000       0.00000000   -5893.01757812
Sn       0.00000000       0.00000000       0.65030303       0.00000000       0.00000000    5893.01757812
2
Properties=species:S:1:pos:R:3:forces:R:3 energy=436.1667860646168 pbc="F F F"
Sn       0.00000000       0.00000000       0.00000000       0.00000000       0.00000000   -3367.60009766
Sn       0.00000000       0.00000000       0.70909091       0.00000000       0.00000000    3367.60009766
2
Properties=species:S:1:pos:R:3:forces:R:3 energy=301.86447907192695 pbc="F F F"
Sn       0.00000000       0.00000000       0.00000000       0.00000000       0.00000000   -1551.06506348
Sn       0.00000000       0.00000000       0.76787879       0.00000000       0.00000000    1551.06506348
2
Properties=species:S:1:pos:R:3:forces:R:3 energy=229.49814627002286 pbc="F F F"
Sn       0.00000000       0.00000000       0.00000000       0.00000000       0.00000000   -1038.76721191
Sn       0.00000000       0.00000000       0.82666667       0.00000000       0.00000000    1038.76721191
2
Properties=species:S:1:pos:R:3:forces:R:3 energy=175.85295918353282 pbc="F F F"
Sn       0.00000000       0.00000000       0.00000000       0.00000000       0.00000000    -800.20507812
Sn       0.00000000       0.00000000       0.88545455       0.00000000       0.00000000     800.20507812
2
Properties=species:S:1:pos:R:3:forces:R:3 energy=134.55089661023626 pbc="F F F"
Sn       0.00000000       0.00000000       0.00000000       0.00000000       0.00000000    -603.90447998
Sn       0.00000000       0.00000000       0.94424242       0.00000000       0.00000000     603.90447998
2
Properties=species:S:1:pos:R:3:forces:R:3 energy=104.7355132629758 pbc="F F F"
Sn       0.00000000       0.00000000       0.00000000       0.00000000       0.00000000    -417.49798584
Sn       0.00000000       0.00000000       1.00303030       0.00000000       0.00000000     417.49798584
2
Properties=species:S:1:pos:R:3:forces:R:3 energy=84.13538585259282 pbc="F F F"
Sn       0.00000000       0.00000000       0.00000000       0.00000000       0.00000000    -295.53607178
Sn       0.00000000       0.00000000       1.06181818       0.00000000       0.00000000     295.53607178
2
Properties=species:S:1:pos:R:3:forces:R:3 energy=68.92359487727623 pbc="F F F"
Sn       0.00000000       0.00000000       0.00000000       0.00000000       0.00000000    -227.29948425
Sn       0.00000000       0.00000000       1.12060606       0.00000000       0.00000000     227.29948425
2
Properties=species:S:1:pos:R:3:forces:R:3 energy=57.0653007670877 pbc="F F F"
Sn       0.00000000       0.00000000       0.00000000       0.00000000       0.00000000    -177.82328796
Sn       0.00000000       0.00000000       1.17939394       0.00000000       0.00000000     177.82328796
2
Properties=species:S:1:pos:R:3:forces:R:3 energy=47.82720815421332 pbc="F F F"
Sn       0.00000000       0.00000000       0.00000000       0.00000000       0.00000000    -138.27171326
Sn       0.00000000       0.00000000       1.23818182       0.00000000       0.00000000     138.27171326
2
Properties=species:S:1:pos:R:3:forces:R:3 energy=40.58902065541626 pbc="F F F"
Sn       0.00000000       0.00000000       0.00000000       0.00000000       0.00000000    -109.64160919
Sn       0.00000000       0.00000000       1.29696970       0.00000000       0.00000000     109.64160919
2
Properties=species:S:1:pos:R:3:forces:R:3 energy=34.774337615230905 pbc="F F F"
Sn       0.00000000       0.00000000       0.00000000       0.00000000       0.00000000     -89.39714050
Sn       0.00000000       0.00000000       1.35575758       0.00000000       0.00000000      89.39714050
2
Properties=species:S:1:pos:R:3:forces:R:3 energy=29.930396547106902 pbc="F F F"
Sn       0.00000000       0.00000000       0.00000000       0.00000000       0.00000000     -76.68954468
Sn       0.00000000       0.00000000       1.41454545       0.00000000       0.00000000      76.68954468
2
Properties=species:S:1:pos:R:3:forces:R:3 energy=25.6222153001272 pbc="F F F"
Sn       0.00000000       0.00000000       0.00000000       0.00000000       0.00000000     -70.73728943
Sn       0.00000000       0.00000000       1.47333333       0.00000000       0.00000000      70.73728943
2
Properties=species:S:1:pos:R:3:forces:R:3 energy=21.55863153550254 pbc="F F F"
Sn       0.00000000       0.00000000       0.00000000       0.00000000       0.00000000     -67.61123657
Sn       0.00000000       0.00000000       1.53212121       0.00000000       0.00000000      67.61123657
2
Properties=species:S:1:pos:R:3:forces:R:3 energy=17.68766637836084 pbc="F F F"
Sn       0.00000000       0.00000000       0.00000000       0.00000000       0.00000000     -63.82342148
Sn       0.00000000       0.00000000       1.59090909       0.00000000       0.00000000      63.82342148
2
Properties=species:S:1:pos:R:3:forces:R:3 energy=14.087382098441308 pbc="F F F"
Sn       0.00000000       0.00000000       0.00000000       0.00000000       0.00000000     -58.40622330
Sn       0.00000000       0.00000000       1.64969697       0.00000000       0.00000000      58.40622330
2
Properties=species:S:1:pos:R:3:forces:R:3 energy=10.843046957128305 pbc="F F F"
Sn       0.00000000       0.00000000       0.00000000       0.00000000       0.00000000     -51.84724426
Sn       0.00000000       0.00000000       1.70848485       0.00000000       0.00000000      51.84724426
2
Properties=species:S:1:pos:R:3:forces:R:3 energy=7.998230820184275 pbc="F F F"
Sn       0.00000000       0.00000000       0.00000000       0.00000000       0.00000000     -44.92578888
Sn       0.00000000       0.00000000       1.76727273       0.00000000       0.00000000      44.92578888
2
Properties=species:S:1:pos:R:3:forces:R:3 energy=5.558509582086744 pbc="F F F"
Sn       0.00000000       0.00000000       0.00000000       0.00000000       0.00000000     -38.11748123
Sn       0.00000000       0.00000000       1.82606061       0.00000000       0.00000000      38.11748123
2
Properties=species:S:1:pos:R:3:forces:R:3 energy=3.509180797527938 pbc="F F F"
Sn       0.00000000       0.00000000       0.00000000       0.00000000       0.00000000     -31.68492317
Sn       0.00000000       0.00000000       1.88484848       0.00000000       0.00000000      31.68492317
2
Properties=species:S:1:pos:R:3:forces:R:3 energy=1.8211393405701086 pbc="F F F"
Sn       0.00000000       0.00000000       0.00000000       0.00000000       0.00000000     -25.86148834
Sn       0.00000000       0.00000000       1.94363636       0.00000000       0.00000000      25.86148834
2
Properties=species:S:1:pos:R:3:forces:R:3 energy=0.45342174753308895 pbc="F F F"
Sn       0.00000000       0.00000000       0.00000000       0.00000000       0.00000000     -20.80293655
Sn       0.00000000       0.00000000       2.00242424       0.00000000       0.00000000      20.80293655
2
Properties=species:S:1:pos:R:3:forces:R:3 energy=-0.6405252437101039 pbc="F F F"
Sn       0.00000000       0.00000000       0.00000000       0.00000000       0.00000000     -16.54474258
Sn       0.00000000       0.00000000       2.06121212       0.00000000       0.00000000      16.54474258
2
Properties=species:S:1:pos:R:3:forces:R:3 energy=-1.5065183949530307 pbc="F F F"
Sn       0.00000000       0.00000000       0.00000000       0.00000000       0.00000000     -13.03462029
Sn       0.00000000       0.00000000       2.12000000       0.00000000       0.00000000      13.03462029
2
Properties=species:S:1:pos:R:3:forces:R:3 energy=-2.1858651001795493 pbc="F F F"
Sn       0.00000000       0.00000000       0.00000000       0.00000000       0.00000000     -10.17664242
Sn       0.00000000       0.00000000       2.17878788       0.00000000       0.00000000      10.17664242
2
Properties=species:S:1:pos:R:3:forces:R:3 energy=-2.7137067962554173 pbc="F F F"
Sn       0.00000000       0.00000000       0.00000000       0.00000000       0.00000000      -7.86272383
Sn       0.00000000       0.00000000       2.23757576       0.00000000       0.00000000       7.86272383
2
Properties=species:S:1:pos:R:3:forces:R:3 energy=-3.1189573455648367 pbc="F F F"
Sn       0.00000000       0.00000000       0.00000000       0.00000000       0.00000000      -5.98965311
Sn       0.00000000       0.00000000       2.29636364       0.00000000       0.00000000       5.98965311
2
Properties=species:S:1:pos:R:3:forces:R:3 energy=-3.42480181918127 pbc="F F F"
Sn       0.00000000       0.00000000       0.00000000       0.00000000       0.00000000      -4.46712208
Sn       0.00000000       0.00000000       2.35515152       0.00000000       0.00000000       4.46712208
2
Properties=species:S:1:pos:R:3:forces:R:3 energy=-3.649591185928224 pbc="F F F"
Sn       0.00000000       0.00000000       0.00000000       0.00000000       0.00000000      -3.22109532
Sn       0.00000000       0.00000000       2.41393939       0.00000000       0.00000000       3.22109532
2
Properties=species:S:1:pos:R:3:forces:R:3 energy=-3.8078256654729845 pbc="F F F"
Sn       0.00000000       0.00000000       0.00000000       0.00000000       0.00000000      -2.19496202
Sn       0.00000000       0.00000000       2.47272727       0.00000000       0.00000000       2.19496202
2
Properties=species:S:1:pos:R:3:forces:R:3 energy=-3.9111577417856846 pbc="F F F"
Sn       0.00000000       0.00000000       0.00000000       0.00000000       0.00000000      -1.34755051
Sn       0.00000000       0.00000000       2.53151515       0.00000000       0.00000000       1.34755051
2
Properties=species:S:1:pos:R:3:forces:R:3 energy=-3.969179501314975 pbc="F F F"
Sn       0.00000000       0.00000000       0.00000000       0.00000000       0.00000000      -0.64909023
Sn       0.00000000       0.00000000       2.59030303       0.00000000       0.00000000       0.64909023
2
Properties=species:S:1:pos:R:3:forces:R:3 energy=-3.989948354626486 pbc="F F F"
Sn       0.00000000       0.00000000       0.00000000       0.00000000       0.00000000      -0.07688112
Sn       0.00000000       0.00000000       2.64909091       0.00000000       0.00000000       0.07688112
2
Properties=species:S:1:pos:R:3:forces:R:3 energy=-3.9803246497821294 pbc="F F F"
Sn       0.00000000       0.00000000       0.00000000       0.00000000       0.00000000       0.38777179
Sn       0.00000000       0.00000000       2.70787879       0.00000000       0.00000000      -0.38777179
2
Properties=species:S:1:pos:R:3:forces:R:3 energy=-3.946152040330959 pbc="F F F"
Sn       0.00000000       0.00000000       0.00000000       0.00000000       0.00000000       0.76063073
Sn       0.00000000       0.00000000       2.76666667       0.00000000       0.00000000      -0.76063073
2
Properties=species:S:1:pos:R:3:forces:R:3 energy=-3.8924375665322075 pbc="F F F"
Sn       0.00000000       0.00000000       0.00000000       0.00000000       0.00000000       1.05451012
Sn       0.00000000       0.00000000       2.82545455       0.00000000       0.00000000      -1.05451012
2
Properties=species:S:1:pos:R:3:forces:R:3 energy=-3.823519497203315 pbc="F F F"
Sn       0.00000000       0.00000000       0.00000000       0.00000000       0.00000000       1.27930939
Sn       0.00000000       0.00000000       2.88424242       0.00000000       0.00000000      -1.27930939
2
Properties=species:S:1:pos:R:3:forces:R:3 energy=-3.7432225297196915 pbc="F F F"
Sn       0.00000000       0.00000000       0.00000000       0.00000000       0.00000000       1.44277489
Sn       0.00000000       0.00000000       2.94303030       0.00000000       0.00000000      -1.44277489
2
Properties=species:S:1:pos:R:3:forces:R:3 energy=-3.6549503721314376 pbc="F F F"
Sn       0.00000000       0.00000000       0.00000000       0.00000000       0.00000000       1.55183029
Sn       0.00000000       0.00000000       3.00181818       0.00000000       0.00000000      -1.55183029
2
Properties=species:S:1:pos:R:3:forces:R:3 energy=-3.561689070880588 pbc="F F F"
Sn       0.00000000       0.00000000       0.00000000       0.00000000       0.00000000       1.61381173
Sn       0.00000000       0.00000000       3.06060606       0.00000000       0.00000000      -1.61381173
2
Properties=species:S:1:pos:R:3:forces:R:3 energy=-3.465967161589013 pbc="F F F"
Sn       0.00000000       0.00000000       0.00000000       0.00000000       0.00000000       1.63698769
Sn       0.00000000       0.00000000       3.11939394       0.00000000       0.00000000      -1.63698769
2
Properties=species:S:1:pos:R:3:forces:R:3 energy=-3.369803412064518 pbc="F F F"
Sn       0.00000000       0.00000000       0.00000000       0.00000000       0.00000000       1.63033116
Sn       0.00000000       0.00000000       3.17818182       0.00000000       0.00000000      -1.63033116
2
Properties=species:S:1:pos:R:3:forces:R:3 energy=-3.2746860891627474 pbc="F F F"
Sn       0.00000000       0.00000000       0.00000000       0.00000000       0.00000000       1.60292459
Sn       0.00000000       0.00000000       3.23696970       0.00000000       0.00000000      -1.60292459
2
Properties=species:S:1:pos:R:3:forces:R:3 energy=-3.181575061287667 pbc="F F F"
Sn       0.00000000       0.00000000       0.00000000       0.00000000       0.00000000       1.56340373
Sn       0.00000000       0.00000000       3.29575758       0.00000000       0.00000000      -1.56340373
2
Properties=species:S:1:pos:R:3:forces:R:3 energy=-3.090958539285466 pbc="F F F"
Sn       0.00000000       0.00000000       0.00000000       0.00000000       0.00000000       1.51909506
Sn       0.00000000       0.00000000       3.35454545       0.00000000       0.00000000      -1.51909506
2
Properties=species:S:1:pos:R:3:forces:R:3 energy=-3.002973370375412 pbc="F F F"
Sn       0.00000000       0.00000000       0.00000000       0.00000000       0.00000000       1.47427857
Sn       0.00000000       0.00000000       3.41333333       0.00000000       0.00000000      -1.47427857
2
Properties=species:S:1:pos:R:3:forces:R:3 energy=-2.9176219634546894 pbc="F F F"
Sn       0.00000000       0.00000000       0.00000000       0.00000000       0.00000000       1.42925060
Sn       0.00000000       0.00000000       3.47212121       0.00000000       0.00000000      -1.42925060
2
Properties=species:S:1:pos:R:3:forces:R:3 energy=-2.8349728529577036 pbc="F F F"
Sn       0.00000000       0.00000000       0.00000000       0.00000000       0.00000000       1.38198853
Sn       0.00000000       0.00000000       3.53090909       0.00000000       0.00000000      -1.38198853
2
Properties=species:S:1:pos:R:3:forces:R:3 energy=-2.755217283799771 pbc="F F F"
Sn       0.00000000       0.00000000       0.00000000       0.00000000       0.00000000       1.33050609
Sn       0.00000000       0.00000000       3.58969697       0.00000000       0.00000000      -1.33050609
2
Properties=species:S:1:pos:R:3:forces:R:3 energy=-2.6786379790484856 pbc="F F F"
Sn       0.00000000       0.00000000       0.00000000       0.00000000       0.00000000       1.27389896
Sn       0.00000000       0.00000000       3.64848485       0.00000000       0.00000000      -1.27389896
2
Properties=species:S:1:pos:R:3:forces:R:3 energy=-2.605534696876812 pbc="F F F"
Sn       0.00000000       0.00000000       0.00000000       0.00000000       0.00000000       1.21236110
Sn       0.00000000       0.00000000       3.70727273       0.00000000       0.00000000      -1.21236110
2
Properties=species:S:1:pos:R:3:forces:R:3 energy=-2.5361697726667063 pbc="F F F"
Sn       0.00000000       0.00000000       0.00000000       0.00000000       0.00000000       1.14691687
Sn       0.00000000       0.00000000       3.76606061       0.00000000       0.00000000      -1.14691687
2
Properties=species:S:1:pos:R:3:forces:R:3 energy=-2.470732444249203 pbc="F F F"
Sn       0.00000000       0.00000000       0.00000000       0.00000000       0.00000000       1.07908058
Sn       0.00000000       0.00000000       3.82484848       0.00000000       0.00000000      -1.07908058
2
Properties=species:S:1:pos:R:3:forces:R:3 energy=-2.409311190869951 pbc="F F F"
Sn       0.00000000       0.00000000       0.00000000       0.00000000       0.00000000       1.01048899
Sn       0.00000000       0.00000000       3.88363636       0.00000000       0.00000000      -1.01048899
2
Properties=species:S:1:pos:R:3:forces:R:3 energy=-2.351907916615248 pbc="F F F"
Sn       0.00000000       0.00000000       0.00000000       0.00000000       0.00000000       0.94264990
Sn       0.00000000       0.00000000       3.94242424       0.00000000       0.00000000      -0.94264990
2
Properties=species:S:1:pos:R:3:forces:R:3 energy=-2.2984408229546616 pbc="F F F"
Sn       0.00000000       0.00000000       0.00000000       0.00000000       0.00000000       0.87676167
Sn       0.00000000       0.00000000       4.00121212       0.00000000       0.00000000      -0.87676167
2
Properties=species:S:1:pos:R:3:forces:R:3 energy=-2.248767263422717 pbc="F F F"
Sn       0.00000000       0.00000000       0.00000000       0.00000000       0.00000000       0.81367135
Sn       0.00000000       0.00000000       4.06000000       0.00000000       0.00000000      -0.81367135
2
Properties=species:S:1:pos:R:3:forces:R:3 energy=-2.2027074205902033 pbc="F F F"
Sn       0.00000000       0.00000000       0.00000000       0.00000000       0.00000000       0.75391787
Sn       0.00000000       0.00000000       4.11878788       0.00000000       0.00000000      -0.75391787
2
Properties=species:S:1:pos:R:3:forces:R:3 energy=-2.160053039524651 pbc="F F F"
Sn       0.00000000       0.00000000       0.00000000       0.00000000       0.00000000       0.69780451
Sn       0.00000000       0.00000000       4.17757576       0.00000000       0.00000000      -0.69780451
2
Properties=species:S:1:pos:R:3:forces:R:3 energy=-2.1205869234289207 pbc="F F F"
Sn       0.00000000       0.00000000       0.00000000       0.00000000       0.00000000       0.64548969
Sn       0.00000000       0.00000000       4.23636364       0.00000000       0.00000000      -0.64548969
2
Properties=species:S:1:pos:R:3:forces:R:3 energy=-2.084082760914973 pbc="F F F"
Sn       0.00000000       0.00000000       0.00000000       0.00000000       0.00000000       0.59704143
Sn       0.00000000       0.00000000       4.29515152       0.00000000       0.00000000      -0.59704143
2
Properties=species:S:1:pos:R:3:forces:R:3 energy=-2.05031348966107 pbc="F F F"
Sn       0.00000000       0.00000000       0.00000000       0.00000000       0.00000000       0.55248022
Sn       0.00000000       0.00000000       4.35393939       0.00000000       0.00000000      -0.55248022
2
Properties=species:S:1:pos:R:3:forces:R:3 energy=-2.0190498163830974 pbc="F F F"
Sn       0.00000000       0.00000000       0.00000000       0.00000000       0.00000000       0.51176029
Sn       0.00000000       0.00000000       4.41272727       0.00000000       0.00000000      -0.51176029
2
Properties=species:S:1:pos:R:3:forces:R:3 energy=-1.9900697282351523 pbc="F F F"
Sn       0.00000000       0.00000000       0.00000000       0.00000000       0.00000000       0.47475630
Sn       0.00000000       0.00000000       4.47151515       0.00000000       0.00000000      -0.47475630
2
Properties=species:S:1:pos:R:3:forces:R:3 energy=-1.963161369671603 pbc="F F F"
Sn       0.00000000       0.00000000       0.00000000       0.00000000       0.00000000       0.44122201
Sn       0.00000000       0.00000000       4.53030303       0.00000000       0.00000000      -0.44122201
2
Properties=species:S:1:pos:R:3:forces:R:3 energy=-1.9381325653510115 pbc="F F F"
Sn       0.00000000       0.00000000       0.00000000       0.00000000       0.00000000       0.41076171
Sn       0.00000000       0.00000000       4.58909091       0.00000000       0.00000000      -0.41076171
2
Properties=species:S:1:pos:R:3:forces:R:3 energy=-1.9148170665365236 pbc="F F F"
Sn       0.00000000       0.00000000       0.00000000       0.00000000       0.00000000       0.38282460
Sn       0.00000000       0.00000000       4.64787879       0.00000000       0.00000000      -0.38282460
2
Properties=species:S:1:pos:R:3:forces:R:3 energy=-1.8930848324370873 pbc="F F F"
Sn       0.00000000       0.00000000       0.00000000       0.00000000       0.00000000       0.35675010
Sn       0.00000000       0.00000000       4.70666667       0.00000000       0.00000000      -0.35675010
2
Properties=species:S:1:pos:R:3:forces:R:3 energy=-1.8728490762268235 pbc="F F F"
Sn       0.00000000       0.00000000       0.00000000       0.00000000       0.00000000       0.33185053
Sn       0.00000000       0.00000000       4.76545455       0.00000000       0.00000000      -0.33185053
2
Properties=species:S:1:pos:R:3:forces:R:3 energy=-1.8540551025533687 pbc="F F F"
Sn       0.00000000       0.00000000       0.00000000       0.00000000       0.00000000       0.30755082
Sn       0.00000000       0.00000000       4.82424242       0.00000000       0.00000000      -0.30755082
2
Properties=species:S:1:pos:R:3:forces:R:3 energy=-1.8366836442300283 pbc="F F F"
Sn       0.00000000       0.00000000       0.00000000       0.00000000       0.00000000       0.28354126
Sn       0.00000000       0.00000000       4.88303030       0.00000000       0.00000000      -0.28354126
2
Properties=species:S:1:pos:R:3:forces:R:3 energy=-1.8207114408068497 pbc="F F F"
Sn       0.00000000       0.00000000       0.00000000       0.00000000       0.00000000       0.25989705
Sn       0.00000000       0.00000000       4.94181818       0.00000000       0.00000000      -0.25989705
2
Properties=species:S:1:pos:R:3:forces:R:3 energy=-1.8061080072485163 pbc="F F F"
Sn       0.00000000       0.00000000       0.00000000       0.00000000       0.00000000       0.23714598
Sn       0.00000000       0.00000000       5.00060606       0.00000000       0.00000000      -0.23714598
2
Properties=species:S:1:pos:R:3:forces:R:3 energy=-1.7927933831606913 pbc="F F F"
Sn       0.00000000       0.00000000       0.00000000       0.00000000       0.00000000       0.21617211
Sn       0.00000000       0.00000000       5.05939394       0.00000000       0.00000000      -0.21617211
2
Properties=species:S:1:pos:R:3:forces:R:3 energy=-1.7806366357542784 pbc="F F F"
Sn       0.00000000       0.00000000       0.00000000       0.00000000       0.00000000       0.19797486
Sn       0.00000000       0.00000000       5.11818182       0.00000000       0.00000000      -0.19797486
2
Properties=species:S:1:pos:R:3:forces:R:3 energy=-1.7694494003690315 pbc="F F F"
Sn       0.00000000       0.00000000       0.00000000       0.00000000       0.00000000       0.18320717
Sn       0.00000000       0.00000000       5.17696970       0.00000000       0.00000000      -0.18320717
2
Properties=species:S:1:pos:R:3:forces:R:3 energy=-1.7590327598186575 pbc="F F F"
Sn       0.00000000       0.00000000       0.00000000       0.00000000       0.00000000       0.17163192
Sn       0.00000000       0.00000000       5.23575758       0.00000000       0.00000000      -0.17163192
2
Properties=species:S:1:pos:R:3:forces:R:3 energy=-1.749237270435863 pbc="F F F"
Sn       0.00000000       0.00000000       0.00000000       0.00000000       0.00000000       0.16168888
Sn       0.00000000       0.00000000       5.29454545       0.00000000       0.00000000      -0.16168888
2
Properties=species:S:1:pos:R:3:forces:R:3 energy=-1.7400378888626356 pbc="F F F"
Sn       0.00000000       0.00000000       0.00000000       0.00000000       0.00000000       0.15097967
Sn       0.00000000       0.00000000       5.35333333       0.00000000       0.00000000      -0.15097967
2
Properties=species:S:1:pos:R:3:forces:R:3 energy=-1.731515475603429 pbc="F F F"
Sn       0.00000000       0.00000000       0.00000000       0.00000000       0.00000000       0.13897228
Sn       0.00000000       0.00000000       5.41212121       0.00000000       0.00000000      -0.13897228
2
Properties=species:S:1:pos:R:3:forces:R:3 energy=-1.7236476033128476 pbc="F F F"
Sn       0.00000000       0.00000000       0.00000000       0.00000000       0.00000000       0.12944870
Sn       0.00000000       0.00000000       5.47090909       0.00000000       0.00000000      -0.12944870
2
Properties=species:S:1:pos:R:3:forces:R:3 energy=-1.7162325567057986 pbc="F F F"
Sn       0.00000000       0.00000000       0.00000000       0.00000000       0.00000000       0.12261008
Sn       0.00000000       0.00000000       5.52969697       0.00000000       0.00000000      -0.12261008
2
Properties=species:S:1:pos:R:3:forces:R:3 energy=-1.7093522570748625 pbc="F F F"
Sn       0.00000000       0.00000000       0.00000000       0.00000000       0.00000000       0.11005718
Sn       0.00000000       0.00000000       5.58848485       0.00000000       0.00000000      -0.11005718
2
Properties=species:S:1:pos:R:3:forces:R:3 energy=-1.7034176841974342 pbc="F F F"
Sn       0.00000000       0.00000000       0.00000000       0.00000000       0.00000000       0.09162472
Sn       0.00000000       0.00000000       5.64727273       0.00000000       0.00000000      -0.09162472
2
Properties=species:S:1:pos:R:3:forces:R:3 energy=-1.6985089907295678 pbc="F F F"
Sn       0.00000000       0.00000000       0.00000000       0.00000000       0.00000000       0.07687604
Sn       0.00000000       0.00000000       5.70606061       0.00000000       0.00000000      -0.07687604
2
Properties=species:S:1:pos:R:3:forces:R:3 energy=-1.6941505938743713 pbc="F F F"
Sn       0.00000000       0.00000000       0.00000000       0.00000000       0.00000000       0.07243054
Sn       0.00000000       0.00000000       5.76484848       0.00000000       0.00000000      -0.07243054
2
Properties=species:S:1:pos:R:3:forces:R:3 energy=-1.6900498341539296 pbc="F F F"
Sn       0.00000000       0.00000000       0.00000000       0.00000000       0.00000000       0.06491161
Sn       0.00000000       0.00000000       5.82363636       0.00000000       0.00000000      -0.06491161
2
Properties=species:S:1:pos:R:3:forces:R:3 energy=-1.686831777510317 pbc="F F F"
Sn       0.00000000       0.00000000       0.00000000       0.00000000       0.00000000       0.04314182
Sn       0.00000000       0.00000000       5.88242424       0.00000000       0.00000000      -0.04314182
2
Properties=species:S:1:pos:R:3:forces:R:3 energy=-1.6850036113211342 pbc="F F F"
Sn       0.00000000       0.00000000       0.00000000       0.00000000       0.00000000       0.02013428
Sn       0.00000000       0.00000000       5.94121212       0.00000000       0.00000000      -0.02013428
2
Properties=species:S:1:pos:R:3:forces:R:3 energy=-1.6841906114719334 pbc="F F F"
Sn       0.00000000       0.00000000       0.00000000       0.00000000       0.00000000       0.01052490
Sn       0.00000000       0.00000000       6.00000000       0.00000000       0.00000000      -0.01052490
