2
Properties=species:S:1:pos:R:3:forces:R:3 energy=8560.152500928229 pbc="F F F"
Sr       0.00000000       0.00000000       0.00000000       0.00000000       0.00000000  -95152.82812500
Sr       0.00000000       0.00000000       0.18000000       0.00000000       0.00000000   95152.82812500
2
Properties=species:S:1:pos:R:3:forces:R:3 energy=5133.356602490729 pbc="F F F"
Sr       0.00000000       0.00000000       0.00000000       0.00000000       0.00000000  -33947.34375000
Sr       0.00000000       0.00000000       0.23878788       0.00000000       0.00000000   33947.34375000
2
Properties=species:S:1:pos:R:3:forces:R:3 energy=3796.9593856938536 pbc="F F F"
Sr       0.00000000       0.00000000       0.00000000       0.00000000       0.00000000  -14857.24023438
Sr       0.00000000       0.00000000       0.29757576       0.00000000       0.00000000   14857.24023438
2
Properties=species:S:1:pos:R:3:forces:R:3 energy=3154.9818466313536 pbc="F F F"
Sr       0.00000000       0.00000000       0.00000000       0.00000000       0.00000000   -8128.12939453
Sr       0.00000000       0.00000000       0.35636364       0.00000000       0.00000000    8128.12939453
2
Properties=species:S:1:pos:R:3:forces:R:3 energy=2754.0733993657286 pbc="F F F"
Sr       0.00000000       0.00000000       0.00000000       0.00000000       0.00000000   -5988.75097656
Sr       0.00000000       0.00000000       0.41515152       0.00000000       0.00000000    5988.75097656
2
Properties=species:S:1:pos:R:3:forces:R:3 energy=2412.3390243784 pbc="F F F"
Sr       0.00000000       0.00000000       0.00000000       0.00000000       0.00000000   -5855.42773438
Sr       0.00000000       0.00000000       0.47393939       0.00000000       0.00000000    5855.42773438
2
Properties=species:S:1:pos:R:3:forces:R:3 energy=2048.7335556410712 pbc="F F F"
Sr       0.00000000       0.00000000       0.00000000       0.00000000       0.00000000   -6593.74316406
Sr       0.00000000       0.00000000       0.53272727       0.00000000       0.00000000    6593.74316406
2
Properties=species:S:1:pos:R:3:forces:R:3 energy=1634.42679295843 pbc="F F F"
Sr       0.00000000       0.00000000       0.00000000       0.00000000       0.00000000   -7469.21972656
Sr       0.00000000       0.00000000       0.59151515       0.00000000       0.00000000    7469.21972656
2
Properties=species:S:1:pos:R:3:forces:R:3 energy=1180.5506943636315 pbc="F F F"
Sr       0.00000000       0.00000000       0.00000000       0.00000000       0.00000000   -7505.41943359
Sr       0.00000000       0.00000000       0.65030303       0.00000000       0.00000000    7505.41943359
2
Properties=species:S:1:pos:R:3:forces:R:3 energy=768.8547715690897 pbc="F F F"
Sr       0.00000000       0.00000000       0.00000000       0.00000000       0.00000000   -6642.23876953
Sr       0.00000000       0.00000000       0.70909091       0.00000000       0.00000000    6642.23876953
2
Properties=species:S:1:pos:R:3:forces:R:3 energy=418.5036058799687 pbc="F F F"
Sr       0.00000000       0.00000000       0.00000000       0.00000000       0.00000000   -4194.61279297
Sr       0.00000000       0.00000000       0.76787879       0.00000000       0.00000000    4194.61279297
2
Properties=species:S:1:pos:R:3:forces:R:3 energy=272.8246509158853 pbc="F F F"
Sr       0.00000000       0.00000000       0.00000000       0.00000000       0.00000000   -1704.93933105
Sr       0.00000000       0.00000000       0.82666667       0.00000000       0.00000000    1704.93933105
2
Properties=species:S:1:pos:R:3:forces:R:3 energy=189.16452535452584 pbc="F F F"
Sr       0.00000000       0.00000000       0.00000000       0.00000000       0.00000000   -1315.16198730
Sr       0.00000000       0.00000000       0.88545455       0.00000000       0.00000000    1315.16198730
2
Properties=species:S:1:pos:R:3:forces:R:3 energy=131.8760124180222 pbc="F F F"
Sr       0.00000000       0.00000000       0.00000000       0.00000000       0.00000000    -659.87109375
Sr       0.00000000       0.00000000       0.94424242       0.00000000       0.00000000     659.87109375
2
Properties=species:S:1:pos:R:3:forces:R:3 energy=106.12981980267551 pbc="F F F"
Sr       0.00000000       0.00000000       0.00000000       0.00000000       0.00000000    -255.77239990
Sr       0.00000000       0.00000000       1.00303030       0.00000000       0.00000000     255.77239990
2
Properties=species:S:1:pos:R:3:forces:R:3 energy=99.34465636677608 pbc="F F F"
Sr       0.00000000       0.00000000       0.00000000       0.00000000       0.00000000      10.17434502
Sr       0.00000000       0.00000000       1.06181818       0.00000000       0.00000000     -10.17434502
2
Properties=species:S:1:pos:R:3:forces:R:3 energy=102.67344570697958 pbc="F F F"
Sr       0.00000000       0.00000000       0.00000000       0.00000000       0.00000000      -9.03050613
Sr       0.00000000       0.00000000       1.12060606       0.00000000       0.00000000       9.03050613
2
Properties=species:S:1:pos:R:3:forces:R:3 energy=95.69358808782633 pbc="F F F"
Sr       0.00000000       0.00000000       0.00000000       0.00000000       0.00000000    -162.23992920
Sr       0.00000000       0.00000000       1.17939394       0.00000000       0.00000000     162.23992920
2
Properties=species:S:1:pos:R:3:forces:R:3 energy=84.99957357959279 pbc="F F F"
Sr       0.00000000       0.00000000       0.00000000       0.00000000       0.00000000    -196.64251709
Sr       0.00000000       0.00000000       1.23818182       0.00000000       0.00000000     196.64251709
2
Properties=species:S:1:pos:R:3:forces:R:3 energy=73.03357142875291 pbc="F F F"
Sr       0.00000000       0.00000000       0.00000000       0.00000000       0.00000000    -207.34783936
Sr       0.00000000       0.00000000       1.29696970       0.00000000       0.00000000     207.34783936
2
Properties=species:S:1:pos:R:3:forces:R:3 energy=61.00589741568009 pbc="F F F"
Sr       0.00000000       0.00000000       0.00000000       0.00000000       0.00000000    -198.59918213
Sr       0.00000000       0.00000000       1.35575758       0.00000000       0.00000000     198.59918213
2
Properties=species:S:1:pos:R:3:forces:R:3 energy=49.99363518504163 pbc="F F F"
Sr       0.00000000       0.00000000       0.00000000       0.00000000       0.00000000    -174.29205322
Sr       0.00000000       0.00000000       1.41454545       0.00000000       0.00000000     174.29205322
2
Properties=species:S:1:pos:R:3:forces:R:3 energy=40.600781083385094 pbc="F F F"
Sr       0.00000000       0.00000000       0.00000000       0.00000000       0.00000000    -145.36009216
Sr       0.00000000       0.00000000       1.47333333       0.00000000       0.00000000     145.36009216
2
Properties=species:S:1:pos:R:3:forces:R:3 energy=32.84311281897834 pbc="F F F"
Sr       0.00000000       0.00000000       0.00000000       0.00000000       0.00000000    -119.20918274
Sr       0.00000000       0.00000000       1.53212121       0.00000000       0.00000000     119.20918274
2
Properties=species:S:1:pos:R:3:forces:R:3 energy=26.514755083791872 pbc="F F F"
Sr       0.00000000       0.00000000       0.00000000       0.00000000       0.00000000     -96.62125397
Sr       0.00000000       0.00000000       1.59090909       0.00000000       0.00000000      96.62125397
2
Properties=species:S:1:pos:R:3:forces:R:3 energy=21.419073705600393 pbc="F F F"
Sr       0.00000000       0.00000000       0.00000000       0.00000000       0.00000000     -77.31663513
Sr       0.00000000       0.00000000       1.64969697       0.00000000       0.00000000      77.31663513
2
Properties=species:S:1:pos:R:3:forces:R:3 energy=17.353035382858096 pbc="F F F"
Sr       0.00000000       0.00000000       0.00000000       0.00000000       0.00000000     -61.60981369
Sr       0.00000000       0.00000000       1.70848485       0.00000000       0.00000000      61.60981369
2
Properties=species:S:1:pos:R:3:forces:R:3 energy=14.111110100994471 pbc="F F F"
Sr       0.00000000       0.00000000       0.00000000       0.00000000       0.00000000     -49.16533661
Sr       0.00000000       0.00000000       1.76727273       0.00000000       0.00000000      49.16533661
2
Properties=species:S:1:pos:R:3:forces:R:3 energy=11.521842654106775 pbc="F F F"
Sr       0.00000000       0.00000000       0.00000000       0.00000000       0.00000000     -39.31201553
Sr       0.00000000       0.00000000       1.82606061       0.00000000       0.00000000      39.31201553
2
Properties=species:S:1:pos:R:3:forces:R:3 energy=9.446755913160528 pbc="F F F"
Sr       0.00000000       0.00000000       0.00000000       0.00000000       0.00000000     -31.61066055
Sr       0.00000000       0.00000000       1.88484848       0.00000000       0.00000000      31.61066055
2
Properties=species:S:1:pos:R:3:forces:R:3 energy=7.771535556452743 pbc="F F F"
Sr       0.00000000       0.00000000       0.00000000       0.00000000       0.00000000     -25.62404633
Sr       0.00000000       0.00000000       1.94363636       0.00000000       0.00000000      25.62404633
2
Properties=species:S:1:pos:R:3:forces:R:3 energy=6.4104641466678345 pbc="F F F"
Sr       0.00000000       0.00000000       0.00000000       0.00000000       0.00000000     -20.84376144
Sr       0.00000000       0.00000000       2.00242424       0.00000000       0.00000000      20.84376144
2
Properties=species:S:1:pos:R:3:forces:R:3 energy=5.304628725342511 pbc="F F F"
Sr       0.00000000       0.00000000       0.00000000       0.00000000       0.00000000     -16.89638519
Sr       0.00000000       0.00000000       2.06121212       0.00000000       0.00000000      16.89638519
2
Properties=species:S:1:pos:R:3:forces:R:3 energy=4.411166233935306 pbc="F F F"
Sr       0.00000000       0.00000000       0.00000000       0.00000000       0.00000000     -13.60026264
Sr       0.00000000       0.00000000       2.12000000       0.00000000       0.00000000      13.60026264
2
Properties=species:S:1:pos:R:3:forces:R:3 energy=3.694288735924747 pbc="F F F"
Sr       0.00000000       0.00000000       0.00000000       0.00000000       0.00000000     -10.88020802
Sr       0.00000000       0.00000000       2.17878788       0.00000000       0.00000000      10.88020802
2
Properties=species:S:1:pos:R:3:forces:R:3 energy=3.1215554278787896 pbc="F F F"
Sr       0.00000000       0.00000000       0.00000000       0.00000000       0.00000000      -8.68892765
Sr       0.00000000       0.00000000       2.23757576       0.00000000       0.00000000       8.68892765
2
Properties=species:S:1:pos:R:3:forces:R:3 energy=2.663122946072076 pbc="F F F"
Sr       0.00000000       0.00000000       0.00000000       0.00000000       0.00000000      -6.98586607
Sr       0.00000000       0.00000000       2.29636364       0.00000000       0.00000000       6.98586607
2
Properties=species:S:1:pos:R:3:forces:R:3 energy=2.2912495992253152 pbc="F F F"
Sr       0.00000000       0.00000000       0.00000000       0.00000000       0.00000000      -5.73844814
Sr       0.00000000       0.00000000       2.35515152       0.00000000       0.00000000       5.73844814
2
Properties=species:S:1:pos:R:3:forces:R:3 energy=1.980449186502675 pbc="F F F"
Sr       0.00000000       0.00000000       0.00000000       0.00000000       0.00000000      -4.89617491
Sr       0.00000000       0.00000000       2.41393939       0.00000000       0.00000000       4.89617491
2
Properties=species:S:1:pos:R:3:forces:R:3 energy=1.709455992755576 pbc="F F F"
Sr       0.00000000       0.00000000       0.00000000       0.00000000       0.00000000      -4.36525726
Sr       0.00000000       0.00000000       2.47272727       0.00000000       0.00000000       4.36525726
2
Properties=species:S:1:pos:R:3:forces:R:3 energy=1.4634298039194684 pbc="F F F"
Sr       0.00000000       0.00000000       0.00000000       0.00000000       0.00000000      -4.02743387
Sr       0.00000000       0.00000000       2.53151515       0.00000000       0.00000000       4.02743387
2
Properties=species:S:1:pos:R:3:forces:R:3 energy=1.2341431329546095 pbc="F F F"
Sr       0.00000000       0.00000000       0.00000000       0.00000000       0.00000000      -3.78216100
Sr       0.00000000       0.00000000       2.59030303       0.00000000       0.00000000       3.78216100
2
Properties=species:S:1:pos:R:3:forces:R:3 energy=1.018140931358373 pbc="F F F"
Sr       0.00000000       0.00000000       0.00000000       0.00000000       0.00000000      -3.56857133
Sr       0.00000000       0.00000000       2.64909091       0.00000000       0.00000000       3.56857133
2
Properties=species:S:1:pos:R:3:forces:R:3 energy=0.8144928524933063 pbc="F F F"
Sr       0.00000000       0.00000000       0.00000000       0.00000000       0.00000000      -3.35921097
Sr       0.00000000       0.00000000       2.70787879       0.00000000       0.00000000       3.35921097
2
Properties=species:S:1:pos:R:3:forces:R:3 energy=0.6232863307097192 pbc="F F F"
Sr       0.00000000       0.00000000       0.00000000       0.00000000       0.00000000      -3.14463139
Sr       0.00000000       0.00000000       2.76666667       0.00000000       0.00000000       3.14463139
2
Properties=species:S:1:pos:R:3:forces:R:3 energy=0.4448977636757919 pbc="F F F"
Sr       0.00000000       0.00000000       0.00000000       0.00000000       0.00000000      -2.92318869
Sr       0.00000000       0.00000000       2.82545455       0.00000000       0.00000000       2.92318869
2
Properties=species:S:1:pos:R:3:forces:R:3 energy=0.2796798074041516 pbc="F F F"
Sr       0.00000000       0.00000000       0.00000000       0.00000000       0.00000000      -2.69721508
Sr       0.00000000       0.00000000       2.88424242       0.00000000       0.00000000       2.69721508
2
Properties=species:S:1:pos:R:3:forces:R:3 energy=0.12776620940807146 pbc="F F F"
Sr       0.00000000       0.00000000       0.00000000       0.00000000       0.00000000      -2.47145414
Sr       0.00000000       0.00000000       2.94303030       0.00000000       0.00000000       2.47145414
2
Properties=species:S:1:pos:R:3:forces:R:3 energy=-0.011010899538803992 pbc="F F F"
Sr       0.00000000       0.00000000       0.00000000       0.00000000       0.00000000      -2.25115800
Sr       0.00000000       0.00000000       3.00181818       0.00000000       0.00000000       2.25115800
2
Properties=species:S:1:pos:R:3:forces:R:3 energy=-0.13709615913206236 pbc="F F F"
Sr       0.00000000       0.00000000       0.00000000       0.00000000       0.00000000      -2.04010034
Sr       0.00000000       0.00000000       3.06060606       0.00000000       0.00000000       2.04010034
2
Properties=species:S:1:pos:R:3:forces:R:3 energy=-0.25108683132601534 pbc="F F F"
Sr       0.00000000       0.00000000       0.00000000       0.00000000       0.00000000      -1.83965147
Sr       0.00000000       0.00000000       3.11939394       0.00000000       0.00000000       1.83965147
2
Properties=species:S:1:pos:R:3:forces:R:3 energy=-0.35359362101033376 pbc="F F F"
Sr       0.00000000       0.00000000       0.00000000       0.00000000       0.00000000      -1.64927173
Sr       0.00000000       0.00000000       3.17818182       0.00000000       0.00000000       1.64927173
2
Properties=species:S:1:pos:R:3:forces:R:3 energy=-0.44517338226006437 pbc="F F F"
Sr       0.00000000       0.00000000       0.00000000       0.00000000       0.00000000      -1.46769595
Sr       0.00000000       0.00000000       3.23696970       0.00000000       0.00000000       1.46769595
2
Properties=species:S:1:pos:R:3:forces:R:3 energy=-0.526312337203327 pbc="F F F"
Sr       0.00000000       0.00000000       0.00000000       0.00000000       0.00000000      -1.29398334
Sr       0.00000000       0.00000000       3.29575758       0.00000000       0.00000000       1.29398334
2
Properties=species:S:1:pos:R:3:forces:R:3 energy=-0.5974639860443016 pbc="F F F"
Sr       0.00000000       0.00000000       0.00000000       0.00000000       0.00000000      -1.12795401
Sr       0.00000000       0.00000000       3.35454545       0.00000000       0.00000000       1.12795401
2
Properties=species:S:1:pos:R:3:forces:R:3 energy=-0.6590927168864028 pbc="F F F"
Sr       0.00000000       0.00000000       0.00000000       0.00000000       0.00000000      -0.97009051
Sr       0.00000000       0.00000000       3.41333333       0.00000000       0.00000000       0.97009051
2
Properties=species:S:1:pos:R:3:forces:R:3 energy=-0.7117000299000827 pbc="F F F"
Sr       0.00000000       0.00000000       0.00000000       0.00000000       0.00000000      -0.82122588
Sr       0.00000000       0.00000000       3.47212121       0.00000000       0.00000000       0.82122588
2
Properties=species:S:1:pos:R:3:forces:R:3 energy=-0.7558417586054256 pbc="F F F"
Sr       0.00000000       0.00000000       0.00000000       0.00000000       0.00000000      -0.68222630
Sr       0.00000000       0.00000000       3.53090909       0.00000000       0.00000000       0.68222630
2
Properties=species:S:1:pos:R:3:forces:R:3 energy=-0.7921203341875571 pbc="F F F"
Sr       0.00000000       0.00000000       0.00000000       0.00000000       0.00000000      -0.55378109
Sr       0.00000000       0.00000000       3.58969697       0.00000000       0.00000000       0.55378109
2
Properties=species:S:1:pos:R:3:forces:R:3 energy=-0.8211684045547166 pbc="F F F"
Sr       0.00000000       0.00000000       0.00000000       0.00000000       0.00000000      -0.43631235
Sr       0.00000000       0.00000000       3.64848485       0.00000000       0.00000000       0.43631235
2
Properties=species:S:1:pos:R:3:forces:R:3 energy=-0.8436377863840774 pbc="F F F"
Sr       0.00000000       0.00000000       0.00000000       0.00000000       0.00000000      -0.32995859
Sr       0.00000000       0.00000000       3.70727273       0.00000000       0.00000000       0.32995859
2
Properties=species:S:1:pos:R:3:forces:R:3 energy=-0.860179505565228 pbc="F F F"
Sr       0.00000000       0.00000000       0.00000000       0.00000000       0.00000000      -0.23462130
Sr       0.00000000       0.00000000       3.76606061       0.00000000       0.00000000       0.23462130
2
Properties=species:S:1:pos:R:3:forces:R:3 energy=-0.8714341398318247 pbc="F F F"
Sr       0.00000000       0.00000000       0.00000000       0.00000000       0.00000000      -0.15001716
Sr       0.00000000       0.00000000       3.82484848       0.00000000       0.00000000       0.15001716
2
Properties=species:S:1:pos:R:3:forces:R:3 energy=-0.8780194861919406 pbc="F F F"
Sr       0.00000000       0.00000000       0.00000000       0.00000000       0.00000000      -0.07569569
Sr       0.00000000       0.00000000       3.88363636       0.00000000       0.00000000       0.07569569
2
Properties=species:S:1:pos:R:3:forces:R:3 energy=-0.8805243656532924 pbc="F F F"
Sr       0.00000000       0.00000000       0.00000000       0.00000000       0.00000000      -0.01108287
Sr       0.00000000       0.00000000       3.94242424       0.00000000       0.00000000       0.01108287
2
Properties=species:S:1:pos:R:3:forces:R:3 energy=-0.8795005287037401 pbc="F F F"
Sr       0.00000000       0.00000000       0.00000000       0.00000000       0.00000000       0.04445788
Sr       0.00000000       0.00000000       4.00121212       0.00000000       0.00000000      -0.04445788
2
Properties=species:S:1:pos:R:3:forces:R:3 energy=-0.8754636182183726 pbc="F F F"
Sr       0.00000000       0.00000000       0.00000000       0.00000000       0.00000000       0.09150599
Sr       0.00000000       0.00000000       4.06000000       0.00000000       0.00000000      -0.09150599
2
Properties=species:S:1:pos:R:3:forces:R:3 energy=-0.868899591995473 pbc="F F F"
Sr       0.00000000       0.00000000       0.00000000       0.00000000       0.00000000       0.13048905
Sr       0.00000000       0.00000000       4.11878788       0.00000000       0.00000000      -0.13048905
2
Properties=species:S:1:pos:R:3:forces:R:3 energy=-0.8602730147707648 pbc="F F F"
Sr       0.00000000       0.00000000       0.00000000       0.00000000       0.00000000       0.16171972
Sr       0.00000000       0.00000000       4.17757576       0.00000000       0.00000000      -0.16171972
2
Properties=species:S:1:pos:R:3:forces:R:3 energy=-0.8500276578068058 pbc="F F F"
Sr       0.00000000       0.00000000       0.00000000       0.00000000       0.00000000       0.18569480
Sr       0.00000000       0.00000000       4.23636364       0.00000000       0.00000000      -0.18569480
2
Properties=species:S:1:pos:R:3:forces:R:3 energy=-0.838557207264961 pbc="F F F"
Sr       0.00000000       0.00000000       0.00000000       0.00000000       0.00000000       0.20371170
Sr       0.00000000       0.00000000       4.29515152       0.00000000       0.00000000      -0.20371170
2
Properties=species:S:1:pos:R:3:forces:R:3 energy=-0.8261406761026933 pbc="F F F"
Sr       0.00000000       0.00000000       0.00000000       0.00000000       0.00000000       0.21849433
Sr       0.00000000       0.00000000       4.35393939       0.00000000       0.00000000      -0.21849433
2
Properties=species:S:1:pos:R:3:forces:R:3 energy=-0.8128536472170383 pbc="F F F"
Sr       0.00000000       0.00000000       0.00000000       0.00000000       0.00000000       0.23399065
Sr       0.00000000       0.00000000       4.41272727       0.00000000       0.00000000      -0.23399065
2
Properties=species:S:1:pos:R:3:forces:R:3 energy=-0.7985453486105434 pbc="F F F"
Sr       0.00000000       0.00000000       0.00000000       0.00000000       0.00000000       0.25364745
Sr       0.00000000       0.00000000       4.47151515       0.00000000       0.00000000      -0.25364745
2
Properties=species:S:1:pos:R:3:forces:R:3 energy=-0.7829313960401214 pbc="F F F"
Sr       0.00000000       0.00000000       0.00000000       0.00000000       0.00000000       0.27826029
Sr       0.00000000       0.00000000       4.53030303       0.00000000       0.00000000      -0.27826029
2
Properties=species:S:1:pos:R:3:forces:R:3 energy=-0.7657732531234579 pbc="F F F"
Sr       0.00000000       0.00000000       0.00000000       0.00000000       0.00000000       0.30566806
Sr       0.00000000       0.00000000       4.58909091       0.00000000       0.00000000      -0.30566806
2
Properties=species:S:1:pos:R:3:forces:R:3 energy=-0.7470038699709379 pbc="F F F"
Sr       0.00000000       0.00000000       0.00000000       0.00000000       0.00000000       0.33253819
Sr       0.00000000       0.00000000       4.64787879       0.00000000       0.00000000      -0.33253819
2
Properties=species:S:1:pos:R:3:forces:R:3 energy=-0.7267394655133419 pbc="F F F"
Sr       0.00000000       0.00000000       0.00000000       0.00000000       0.00000000       0.35613939
Sr       0.00000000       0.00000000       4.70666667       0.00000000       0.00000000      -0.35613939
2
Properties=species:S:1:pos:R:3:forces:R:3 energy=-0.7052250333266297 pbc="F F F"
Sr       0.00000000       0.00000000       0.00000000       0.00000000       0.00000000       0.37494862
Sr       0.00000000       0.00000000       4.76545455       0.00000000       0.00000000      -0.37494862
2
Properties=species:S:1:pos:R:3:forces:R:3 energy=-0.6827564939719786 pbc="F F F"
Sr       0.00000000       0.00000000       0.00000000       0.00000000       0.00000000       0.38854751
Sr       0.00000000       0.00000000       4.82424242       0.00000000       0.00000000      -0.38854751
2
Properties=species:S:1:pos:R:3:forces:R:3 energy=-0.6596339546772451 pbc="F F F"
Sr       0.00000000       0.00000000       0.00000000       0.00000000       0.00000000       0.39750460
Sr       0.00000000       0.00000000       4.88303030       0.00000000       0.00000000      -0.39750460
2
Properties=species:S:1:pos:R:3:forces:R:3 energy=-0.6360803821691404 pbc="F F F"
Sr       0.00000000       0.00000000       0.00000000       0.00000000       0.00000000       0.40343857
Sr       0.00000000       0.00000000       4.94181818       0.00000000       0.00000000      -0.40343857
2
Properties=species:S:1:pos:R:3:forces:R:3 energy=-0.612206624586248 pbc="F F F"
Sr       0.00000000       0.00000000       0.00000000       0.00000000       0.00000000       0.40897354
Sr       0.00000000       0.00000000       5.00060606       0.00000000       0.00000000      -0.40897354
2
Properties=species:S:1:pos:R:3:forces:R:3 energy=-0.5879388179741056 pbc="F F F"
Sr       0.00000000       0.00000000       0.00000000       0.00000000       0.00000000       0.41729072
Sr       0.00000000       0.00000000       5.05939394       0.00000000       0.00000000      -0.41729072
2
Properties=species:S:1:pos:R:3:forces:R:3 energy=-0.5630373288436348 pbc="F F F"
Sr       0.00000000       0.00000000       0.00000000       0.00000000       0.00000000       0.43093911
Sr       0.00000000       0.00000000       5.11818182       0.00000000       0.00000000      -0.43093911
2
Properties=species:S:1:pos:R:3:forces:R:3 energy=-0.5371663447504249 pbc="F F F"
Sr       0.00000000       0.00000000       0.00000000       0.00000000       0.00000000       0.44982421
Sr       0.00000000       0.00000000       5.17696970       0.00000000       0.00000000      -0.44982421
2
Properties=species:S:1:pos:R:3:forces:R:3 energy=-0.5101493589136004 pbc="F F F"
Sr       0.00000000       0.00000000       0.00000000       0.00000000       0.00000000       0.46847424
Sr       0.00000000       0.00000000       5.23575758       0.00000000       0.00000000      -0.46847424
2
Properties=species:S:1:pos:R:3:forces:R:3 energy=-0.48232887617580184 pbc="F F F"
Sr       0.00000000       0.00000000       0.00000000       0.00000000       0.00000000       0.47466004
Sr       0.00000000       0.00000000       5.29454545       0.00000000       0.00000000      -0.47466004
2
Properties=species:S:1:pos:R:3:forces:R:3 energy=-0.4548212838083824 pbc="F F F"
Sr       0.00000000       0.00000000       0.00000000       0.00000000       0.00000000       0.45717725
Sr       0.00000000       0.00000000       5.35333333       0.00000000       0.00000000      -0.45717725
2
Properties=species:S:1:pos:R:3:forces:R:3 energy=-0.42876331617704194 pbc="F F F"
Sr       0.00000000       0.00000000       0.00000000       0.00000000       0.00000000       0.43184868
Sr       0.00000000       0.00000000       5.41212121       0.00000000       0.00000000      -0.43184868
2
Properties=species:S:1:pos:R:3:forces:R:3 energy=-0.4032395615652856 pbc="F F F"
Sr       0.00000000       0.00000000       0.00000000       0.00000000       0.00000000       0.44536939
Sr       0.00000000       0.00000000       5.47090909       0.00000000       0.00000000      -0.44536939
2
Properties=species:S:1:pos:R:3:forces:R:3 energy=-0.3758561474650123 pbc="F F F"
Sr       0.00000000       0.00000000       0.00000000       0.00000000       0.00000000       0.48294678
Sr       0.00000000       0.00000000       5.52969697       0.00000000       0.00000000      -0.48294678
2
Properties=species:S:1:pos:R:3:forces:R:3 energy=-0.34760367305158296 pbc="F F F"
Sr       0.00000000       0.00000000       0.00000000       0.00000000       0.00000000       0.46647167
Sr       0.00000000       0.00000000       5.58848485       0.00000000       0.00000000      -0.46647167
2
Properties=species:S:1:pos:R:3:forces:R:3 energy=-0.32188819346703423 pbc="F F F"
Sr       0.00000000       0.00000000       0.00000000       0.00000000       0.00000000       0.40868872
Sr       0.00000000       0.00000000       5.64727273       0.00000000       0.00000000      -0.40868872
2
Properties=species:S:1:pos:R:3:forces:R:3 energy=-0.29847805263490623 pbc="F F F"
Sr       0.00000000       0.00000000       0.00000000       0.00000000       0.00000000       0.40535855
Sr       0.00000000       0.00000000       5.70606061       0.00000000       0.00000000      -0.40535855
2
Properties=species:S:1:pos:R:3:forces:R:3 energy=-0.2719769843854135 pbc="F F F"
Sr       0.00000000       0.00000000       0.00000000       0.00000000       0.00000000       0.50386530
Sr       0.00000000       0.00000000       5.76484848       0.00000000       0.00000000      -0.50386530
2
Properties=species:S:1:pos:R:3:forces:R:3 energy=-0.2406147801750823 pbc="F F F"
Sr       0.00000000       0.00000000       0.00000000       0.00000000       0.00000000       0.53240389
Sr       0.00000000       0.00000000       5.82363636       0.00000000       0.00000000      -0.53240389
2
Properties=species:S:1:pos:R:3:forces:R:3 energy=-0.213689182660672 pbc="F F F"
Sr       0.00000000       0.00000000       0.00000000       0.00000000       0.00000000       0.35977179
Sr       0.00000000       0.00000000       5.88242424       0.00000000       0.00000000      -0.35977179
2
Properties=species:S:1:pos:R:3:forces:R:3 energy=-0.19935247604423695 pbc="F F F"
Sr       0.00000000       0.00000000       0.00000000       0.00000000       0.00000000       0.13522694
Sr       0.00000000       0.00000000       5.94121212       0.00000000       0.00000000      -0.13522694
2
Properties=species:S:1:pos:R:3:forces:R:3 energy=-0.19511253108589965 pbc="F F F"
Sr       0.00000000       0.00000000       0.00000000       0.00000000       0.00000000       0.04012058
Sr       0.00000000       0.00000000       6.00000000       0.00000000       0.00000000      -0.04012058
