2
Properties=species:S:1:pos:R:3:forces:R:3 energy=6198.822242485888 pbc="F F F"
Ta       0.00000000       0.00000000       0.00000000       0.00000000       0.00000000 -253170.46875000
Ta       0.00000000       0.00000000       0.18000000       0.00000000       0.00000000  253170.46875000
2
Properties=species:S:1:pos:R:3:forces:R:3 energy=-2567.241234076612 pbc="F F F"
Ta       0.00000000       0.00000000       0.00000000       0.00000000       0.00000000  -80869.85156250
Ta       0.00000000       0.00000000       0.23878788       0.00000000       0.00000000   80869.85156250
2
Properties=species:S:1:pos:R:3:forces:R:3 energy=-5443.960960639112 pbc="F F F"
Ta       0.00000000       0.00000000       0.00000000       0.00000000       0.00000000  -25770.95117188
Ta       0.00000000       0.00000000       0.29757576       0.00000000       0.00000000   25770.95117188
2
Properties=species:S:1:pos:R:3:forces:R:3 energy=-6172.0942614171945 pbc="F F F"
Ta       0.00000000       0.00000000       0.00000000       0.00000000       0.00000000   -1602.89257812
Ta       0.00000000       0.00000000       0.35636364       0.00000000       0.00000000    1602.89257812
2
Properties=species:S:1:pos:R:3:forces:R:3 energy=-5815.911644226527 pbc="F F F"
Ta       0.00000000       0.00000000       0.00000000       0.00000000       0.00000000   12770.01367188
Ta       0.00000000       0.00000000       0.41515152       0.00000000       0.00000000  -12770.01367188
2
Properties=species:S:1:pos:R:3:forces:R:3 energy=-4758.56398797019 pbc="F F F"
Ta       0.00000000       0.00000000       0.00000000       0.00000000       0.00000000   22492.26562500
Ta       0.00000000       0.00000000       0.47393939       0.00000000       0.00000000  -22492.26562500
2
Properties=species:S:1:pos:R:3:forces:R:3 energy=-3266.63259147948 pbc="F F F"
Ta       0.00000000       0.00000000       0.00000000       0.00000000       0.00000000   27303.31054688
Ta       0.00000000       0.00000000       0.53272727       0.00000000       0.00000000  -27303.31054688
2
Properties=species:S:1:pos:R:3:forces:R:3 energy=-1640.6343004448481 pbc="F F F"
Ta       0.00000000       0.00000000       0.00000000       0.00000000       0.00000000   26739.37695312
Ta       0.00000000       0.00000000       0.59151515       0.00000000       0.00000000  -26739.37695312
2
Properties=species:S:1:pos:R:3:forces:R:3 energy=-299.05214709285735 pbc="F F F"
Ta       0.00000000       0.00000000       0.00000000       0.00000000       0.00000000   18560.06054688
Ta       0.00000000       0.00000000       0.65030303       0.00000000       0.00000000  -18560.06054688
2
Properties=species:S:1:pos:R:3:forces:R:3 energy=460.95453630110154 pbc="F F F"
Ta       0.00000000       0.00000000       0.00000000       0.00000000       0.00000000    7457.94189453
Ta       0.00000000       0.00000000       0.70909091       0.00000000       0.00000000   -7457.94189453
2
Properties=species:S:1:pos:R:3:forces:R:3 energy=602.1380996032156 pbc="F F F"
Ta       0.00000000       0.00000000       0.00000000       0.00000000       0.00000000    -911.16748047
Ta       0.00000000       0.00000000       0.76787879       0.00000000       0.00000000     911.16748047
2
Properties=species:S:1:pos:R:3:forces:R:3 energy=490.4155044897421 pbc="F F F"
Ta       0.00000000       0.00000000       0.00000000       0.00000000       0.00000000   -1694.95056152
Ta       0.00000000       0.00000000       0.82666667       0.00000000       0.00000000    1694.95056152
2
Properties=species:S:1:pos:R:3:forces:R:3 energy=382.4922868651922 pbc="F F F"
Ta       0.00000000       0.00000000       0.00000000       0.00000000       0.00000000   -1664.43713379
Ta       0.00000000       0.00000000       0.88545455       0.00000000       0.00000000    1664.43713379
2
Properties=species:S:1:pos:R:3:forces:R:3 energy=294.0186237378547 pbc="F F F"
Ta       0.00000000       0.00000000       0.00000000       0.00000000       0.00000000   -1345.96752930
Ta       0.00000000       0.00000000       0.94424242       0.00000000       0.00000000    1345.96752930
2
Properties=species:S:1:pos:R:3:forces:R:3 energy=229.2355734826815 pbc="F F F"
Ta       0.00000000       0.00000000       0.00000000       0.00000000       0.00000000    -886.38427734
Ta       0.00000000       0.00000000       1.00303030       0.00000000       0.00000000     886.38427734
2
Properties=species:S:1:pos:R:3:forces:R:3 energy=181.33074292386732 pbc="F F F"
Ta       0.00000000       0.00000000       0.00000000       0.00000000       0.00000000    -758.02154541
Ta       0.00000000       0.00000000       1.06181818       0.00000000       0.00000000     758.02154541
2
Properties=species:S:1:pos:R:3:forces:R:3 energy=139.66137087212513 pbc="F F F"
Ta       0.00000000       0.00000000       0.00000000       0.00000000       0.00000000    -657.23974609
Ta       0.00000000       0.00000000       1.12060606       0.00000000       0.00000000     657.23974609
2
Properties=species:S:1:pos:R:3:forces:R:3 energy=104.48822241897759 pbc="F F F"
Ta       0.00000000       0.00000000       0.00000000       0.00000000       0.00000000    -537.05798340
Ta       0.00000000       0.00000000       1.17939394       0.00000000       0.00000000     537.05798340
2
Properties=species:S:1:pos:R:3:forces:R:3 energy=76.42525787805533 pbc="F F F"
Ta       0.00000000       0.00000000       0.00000000       0.00000000       0.00000000    -420.89474487
Ta       0.00000000       0.00000000       1.23818182       0.00000000       0.00000000     420.89474487
2
Properties=species:S:1:pos:R:3:forces:R:3 energy=54.52448305836233 pbc="F F F"
Ta       0.00000000       0.00000000       0.00000000       0.00000000       0.00000000    -328.25610352
Ta       0.00000000       0.00000000       1.29696970       0.00000000       0.00000000     328.25610352
2
Properties=species:S:1:pos:R:3:forces:R:3 energy=37.45639971640026 pbc="F F F"
Ta       0.00000000       0.00000000       0.00000000       0.00000000       0.00000000    -254.58108521
Ta       0.00000000       0.00000000       1.35575758       0.00000000       0.00000000     254.58108521
2
Properties=species:S:1:pos:R:3:forces:R:3 energy=24.378741839097565 pbc="F F F"
Ta       0.00000000       0.00000000       0.00000000       0.00000000       0.00000000    -192.26824951
Ta       0.00000000       0.00000000       1.41454545       0.00000000       0.00000000     192.26824951
2
Properties=species:S:1:pos:R:3:forces:R:3 energy=14.594306797812084 pbc="F F F"
Ta       0.00000000       0.00000000       0.00000000       0.00000000       0.00000000    -142.82258606
Ta       0.00000000       0.00000000       1.47333333       0.00000000       0.00000000     142.82258606
2
Properties=species:S:1:pos:R:3:forces:R:3 energy=7.346167671013451 pbc="F F F"
Ta       0.00000000       0.00000000       0.00000000       0.00000000       0.00000000    -105.59577942
Ta       0.00000000       0.00000000       1.53212121       0.00000000       0.00000000     105.59577942
2
Properties=species:S:1:pos:R:3:forces:R:3 energy=1.9866585762583018 pbc="F F F"
Ta       0.00000000       0.00000000       0.00000000       0.00000000       0.00000000     -78.17949677
Ta       0.00000000       0.00000000       1.59090909       0.00000000       0.00000000      78.17949677
2
Properties=species:S:1:pos:R:3:forces:R:3 energy=-1.9930108907658184 pbc="F F F"
Ta       0.00000000       0.00000000       0.00000000       0.00000000       0.00000000     -58.27819824
Ta       0.00000000       0.00000000       1.64969697       0.00000000       0.00000000      58.27819824
2
Properties=species:S:1:pos:R:3:forces:R:3 energy=-4.970596712616971 pbc="F F F"
Ta       0.00000000       0.00000000       0.00000000       0.00000000       0.00000000     -43.75559998
Ta       0.00000000       0.00000000       1.70848485       0.00000000       0.00000000      43.75559998
2
Properties=species:S:1:pos:R:3:forces:R:3 energy=-7.208593339309956 pbc="F F F"
Ta       0.00000000       0.00000000       0.00000000       0.00000000       0.00000000     -32.87862015
Ta       0.00000000       0.00000000       1.76727273       0.00000000       0.00000000      32.87862015
2
Properties=species:S:1:pos:R:3:forces:R:3 energy=-8.88522425088838 pbc="F F F"
Ta       0.00000000       0.00000000       0.00000000       0.00000000       0.00000000     -24.51069832
Ta       0.00000000       0.00000000       1.82606061       0.00000000       0.00000000      24.51069832
2
Properties=species:S:1:pos:R:3:forces:R:3 energy=-10.125728162202641 pbc="F F F"
Ta       0.00000000       0.00000000       0.00000000       0.00000000       0.00000000     -17.95211983
Ta       0.00000000       0.00000000       1.88484848       0.00000000       0.00000000      17.95211983
2
Properties=species:S:1:pos:R:3:forces:R:3 energy=-11.023126361536875 pbc="F F F"
Ta       0.00000000       0.00000000       0.00000000       0.00000000       0.00000000     -12.78424263
Ta       0.00000000       0.00000000       1.94363636       0.00000000       0.00000000      12.78424263
2
Properties=species:S:1:pos:R:3:forces:R:3 energy=-11.650588462108368 pbc="F F F"
Ta       0.00000000       0.00000000       0.00000000       0.00000000       0.00000000      -8.72626114
Ta       0.00000000       0.00000000       2.00242424       0.00000000       0.00000000       8.72626114
2
Properties=species:S:1:pos:R:3:forces:R:3 energy=-12.065967202637632 pbc="F F F"
Ta       0.00000000       0.00000000       0.00000000       0.00000000       0.00000000      -5.52898884
Ta       0.00000000       0.00000000       2.06121212       0.00000000       0.00000000       5.52898884
2
Properties=species:S:1:pos:R:3:forces:R:3 energy=-12.31319184155239 pbc="F F F"
Ta       0.00000000       0.00000000       0.00000000       0.00000000       0.00000000      -2.97290397
Ta       0.00000000       0.00000000       2.12000000       0.00000000       0.00000000       2.97290397
2
Properties=species:S:1:pos:R:3:forces:R:3 energy=-12.4247612643913 pbc="F F F"
Ta       0.00000000       0.00000000       0.00000000       0.00000000       0.00000000      -0.89116049
Ta       0.00000000       0.00000000       2.17878788       0.00000000       0.00000000       0.89116049
2
Properties=species:S:1:pos:R:3:forces:R:3 energy=-12.425281288556373 pbc="F F F"
Ta       0.00000000       0.00000000       0.00000000       0.00000000       0.00000000       0.81468588
Ta       0.00000000       0.00000000       2.23757576       0.00000000       0.00000000      -0.81468588
2
Properties=species:S:1:pos:R:3:forces:R:3 energy=-12.335904467086596 pbc="F F F"
Ta       0.00000000       0.00000000       0.00000000       0.00000000       0.00000000       2.16546607
Ta       0.00000000       0.00000000       2.29636364       0.00000000       0.00000000      -2.16546607
2
Properties=species:S:1:pos:R:3:forces:R:3 energy=-12.177983136463098 pbc="F F F"
Ta       0.00000000       0.00000000       0.00000000       0.00000000       0.00000000       3.14466667
Ta       0.00000000       0.00000000       2.35515152       0.00000000       0.00000000      -3.14466667
2
Properties=species:S:1:pos:R:3:forces:R:3 energy=-11.973198846891432 pbc="F F F"
Ta       0.00000000       0.00000000       0.00000000       0.00000000       0.00000000       3.76707458
Ta       0.00000000       0.00000000       2.41393939       0.00000000       0.00000000      -3.76707458
2
Properties=species:S:1:pos:R:3:forces:R:3 energy=-11.740726327961902 pbc="F F F"
Ta       0.00000000       0.00000000       0.00000000       0.00000000       0.00000000       4.10139418
Ta       0.00000000       0.00000000       2.47272727       0.00000000       0.00000000      -4.10139418
2
Properties=species:S:1:pos:R:3:forces:R:3 energy=-11.494803938148374 pbc="F F F"
Ta       0.00000000       0.00000000       0.00000000       0.00000000       0.00000000       4.23967409
Ta       0.00000000       0.00000000       2.53151515       0.00000000       0.00000000      -4.23967409
2
Properties=species:S:1:pos:R:3:forces:R:3 energy=-11.244532455046938 pbc="F F F"
Ta       0.00000000       0.00000000       0.00000000       0.00000000       0.00000000       4.26010084
Ta       0.00000000       0.00000000       2.59030303       0.00000000       0.00000000      -4.26010084
2
Properties=species:S:1:pos:R:3:forces:R:3 energy=-10.995232913885761 pbc="F F F"
Ta       0.00000000       0.00000000       0.00000000       0.00000000       0.00000000       4.21260929
Ta       0.00000000       0.00000000       2.64909091       0.00000000       0.00000000      -4.21260929
2
Properties=species:S:1:pos:R:3:forces:R:3 energy=-10.750038736142546 pbc="F F F"
Ta       0.00000000       0.00000000       0.00000000       0.00000000       0.00000000       4.12345648
Ta       0.00000000       0.00000000       2.70787879       0.00000000       0.00000000      -4.12345648
2
Properties=species:S:1:pos:R:3:forces:R:3 energy=-10.510986874875094 pbc="F F F"
Ta       0.00000000       0.00000000       0.00000000       0.00000000       0.00000000       4.00494194
Ta       0.00000000       0.00000000       2.76666667       0.00000000       0.00000000      -4.00494194
2
Properties=species:S:1:pos:R:3:forces:R:3 energy=-10.279617326766495 pbc="F F F"
Ta       0.00000000       0.00000000       0.00000000       0.00000000       0.00000000       3.86270881
Ta       0.00000000       0.00000000       2.82545455       0.00000000       0.00000000      -3.86270881
2
Properties=species:S:1:pos:R:3:forces:R:3 energy=-10.057231768094047 pbc="F F F"
Ta       0.00000000       0.00000000       0.00000000       0.00000000       0.00000000       3.69974279
Ta       0.00000000       0.00000000       2.88424242       0.00000000       0.00000000      -3.69974279
2
Properties=species:S:1:pos:R:3:forces:R:3 energy=-9.844968536426128 pbc="F F F"
Ta       0.00000000       0.00000000       0.00000000       0.00000000       0.00000000       3.51895714
Ta       0.00000000       0.00000000       2.94303030       0.00000000       0.00000000      -3.51895714
2
Properties=species:S:1:pos:R:3:forces:R:3 energy=-9.643736518624339 pbc="F F F"
Ta       0.00000000       0.00000000       0.00000000       0.00000000       0.00000000       3.32561302
Ta       0.00000000       0.00000000       3.00181818       0.00000000       0.00000000      -3.32561302
2
Properties=species:S:1:pos:R:3:forces:R:3 energy=-9.454026438155731 pbc="F F F"
Ta       0.00000000       0.00000000       0.00000000       0.00000000       0.00000000       3.12882757
Ta       0.00000000       0.00000000       3.06060606       0.00000000       0.00000000      -3.12882757
2
Properties=species:S:1:pos:R:3:forces:R:3 energy=-9.27571094809164 pbc="F F F"
Ta       0.00000000       0.00000000       0.00000000       0.00000000       0.00000000       2.93971825
Ta       0.00000000       0.00000000       3.11939394       0.00000000       0.00000000      -2.93971825
2
Properties=species:S:1:pos:R:3:forces:R:3 energy=-9.108090977885846 pbc="F F F"
Ta       0.00000000       0.00000000       0.00000000       0.00000000       0.00000000       2.76532483
Ta       0.00000000       0.00000000       3.17818182       0.00000000       0.00000000      -2.76532483
2
Properties=species:S:1:pos:R:3:forces:R:3 energy=-8.950300948818185 pbc="F F F"
Ta       0.00000000       0.00000000       0.00000000       0.00000000       0.00000000       2.60474205
Ta       0.00000000       0.00000000       3.23696970       0.00000000       0.00000000      -2.60474205
2
Properties=species:S:1:pos:R:3:forces:R:3 energy=-8.801657395234885 pbc="F F F"
Ta       0.00000000       0.00000000       0.00000000       0.00000000       0.00000000       2.45342755
Ta       0.00000000       0.00000000       3.29575758       0.00000000       0.00000000      -2.45342755
2
Properties=species:S:1:pos:R:3:forces:R:3 energy=-8.66171312032925 pbc="F F F"
Ta       0.00000000       0.00000000       0.00000000       0.00000000       0.00000000       2.30854130
Ta       0.00000000       0.00000000       3.35454545       0.00000000       0.00000000      -2.30854130
2
Properties=species:S:1:pos:R:3:forces:R:3 energy=-8.530128990587324 pbc="F F F"
Ta       0.00000000       0.00000000       0.00000000       0.00000000       0.00000000       2.16876340
Ta       0.00000000       0.00000000       3.41333333       0.00000000       0.00000000      -2.16876340
2
Properties=species:S:1:pos:R:3:forces:R:3 energy=-8.406649847145575 pbc="F F F"
Ta       0.00000000       0.00000000       0.00000000       0.00000000       0.00000000       2.03246951
Ta       0.00000000       0.00000000       3.47212121       0.00000000       0.00000000      -2.03246951
2
Properties=species:S:1:pos:R:3:forces:R:3 energy=-8.291134209209552 pbc="F F F"
Ta       0.00000000       0.00000000       0.00000000       0.00000000       0.00000000       1.89748716
Ta       0.00000000       0.00000000       3.53090909       0.00000000       0.00000000      -1.89748716
2
Properties=species:S:1:pos:R:3:forces:R:3 energy=-8.183563183190214 pbc="F F F"
Ta       0.00000000       0.00000000       0.00000000       0.00000000       0.00000000       1.76193643
Ta       0.00000000       0.00000000       3.58969697       0.00000000       0.00000000      -1.76193643
2
Properties=species:S:1:pos:R:3:forces:R:3 energy=-8.083998734624425 pbc="F F F"
Ta       0.00000000       0.00000000       0.00000000       0.00000000       0.00000000       1.62514174
Ta       0.00000000       0.00000000       3.64848485       0.00000000       0.00000000      -1.62514174
2
Properties=species:S:1:pos:R:3:forces:R:3 energy=-7.992492421954038 pbc="F F F"
Ta       0.00000000       0.00000000       0.00000000       0.00000000       0.00000000       1.48810363
Ta       0.00000000       0.00000000       3.70727273       0.00000000       0.00000000      -1.48810363
2
Properties=species:S:1:pos:R:3:forces:R:3 energy=-7.90898850290873 pbc="F F F"
Ta       0.00000000       0.00000000       0.00000000       0.00000000       0.00000000       1.35336721
Ta       0.00000000       0.00000000       3.76606061       0.00000000       0.00000000      -1.35336721
2
Properties=species:S:1:pos:R:3:forces:R:3 energy=-7.833257127962819 pbc="F F F"
Ta       0.00000000       0.00000000       0.00000000       0.00000000       0.00000000       1.22435653
Ta       0.00000000       0.00000000       3.82484848       0.00000000       0.00000000      -1.22435653
2
Properties=species:S:1:pos:R:3:forces:R:3 energy=-7.764855683183404 pbc="F F F"
Ta       0.00000000       0.00000000       0.00000000       0.00000000       0.00000000       1.10442686
Ta       0.00000000       0.00000000       3.88363636       0.00000000       0.00000000      -1.10442686
2
Properties=species:S:1:pos:R:3:forces:R:3 energy=-7.703174191130699 pbc="F F F"
Ta       0.00000000       0.00000000       0.00000000       0.00000000       0.00000000       0.99608999
Ta       0.00000000       0.00000000       3.94242424       0.00000000       0.00000000      -0.99608999
2
Properties=species:S:1:pos:R:3:forces:R:3 energy=-7.647488856003924 pbc="F F F"
Ta       0.00000000       0.00000000       0.00000000       0.00000000       0.00000000       0.90055871
Ta       0.00000000       0.00000000       4.00121212       0.00000000       0.00000000      -0.90055871
2
Properties=species:S:1:pos:R:3:forces:R:3 energy=-7.597041237616505 pbc="F F F"
Ta       0.00000000       0.00000000       0.00000000       0.00000000       0.00000000       0.81773227
Ta       0.00000000       0.00000000       4.06000000       0.00000000       0.00000000      -0.81773227
2
Properties=species:S:1:pos:R:3:forces:R:3 energy=-7.551115988524144 pbc="F F F"
Ta       0.00000000       0.00000000       0.00000000       0.00000000       0.00000000       0.74649757
Ta       0.00000000       0.00000000       4.11878788       0.00000000       0.00000000      -0.74649757
2
Properties=species:S:1:pos:R:3:forces:R:3 energy=-7.509078155029115 pbc="F F F"
Ta       0.00000000       0.00000000       0.00000000       0.00000000       0.00000000       0.68510437
Ta       0.00000000       0.00000000       4.17757576       0.00000000       0.00000000      -0.68510437
2
Properties=species:S:1:pos:R:3:forces:R:3 energy=-7.470408958974063 pbc="F F F"
Ta       0.00000000       0.00000000       0.00000000       0.00000000       0.00000000       0.63158345
Ta       0.00000000       0.00000000       4.23636364       0.00000000       0.00000000      -0.63158345
2
Properties=species:S:1:pos:R:3:forces:R:3 energy=-7.434701455522421 pbc="F F F"
Ta       0.00000000       0.00000000       0.00000000       0.00000000       0.00000000       0.58403242
Ta       0.00000000       0.00000000       4.29515152       0.00000000       0.00000000      -0.58403242
2
Properties=species:S:1:pos:R:3:forces:R:3 energy=-7.401656895859194 pbc="F F F"
Ta       0.00000000       0.00000000       0.00000000       0.00000000       0.00000000       0.54082108
Ta       0.00000000       0.00000000       4.35393939       0.00000000       0.00000000      -0.54082108
2
Properties=species:S:1:pos:R:3:forces:R:3 energy=-7.371055494404477 pbc="F F F"
Ta       0.00000000       0.00000000       0.00000000       0.00000000       0.00000000       0.50065422
Ta       0.00000000       0.00000000       4.41272727       0.00000000       0.00000000      -0.50065422
2
Properties=species:S:1:pos:R:3:forces:R:3 energy=-7.342749974840801 pbc="F F F"
Ta       0.00000000       0.00000000       0.00000000       0.00000000       0.00000000       0.46260116
Ta       0.00000000       0.00000000       4.47151515       0.00000000       0.00000000      -0.46260116
2
Properties=species:S:1:pos:R:3:forces:R:3 energy=-7.316634881472609 pbc="F F F"
Ta       0.00000000       0.00000000       0.00000000       0.00000000       0.00000000       0.42605057
Ta       0.00000000       0.00000000       4.53030303       0.00000000       0.00000000      -0.42605057
2
Properties=species:S:1:pos:R:3:forces:R:3 energy=-7.292634775506718 pbc="F F F"
Ta       0.00000000       0.00000000       0.00000000       0.00000000       0.00000000       0.39064309
Ta       0.00000000       0.00000000       4.58909091       0.00000000       0.00000000      -0.39064309
2
Properties=species:S:1:pos:R:3:forces:R:3 energy=-7.27068610256902 pbc="F F F"
Ta       0.00000000       0.00000000       0.00000000       0.00000000       0.00000000       0.35623235
Ta       0.00000000       0.00000000       4.64787879       0.00000000       0.00000000      -0.35623235
2
Properties=species:S:1:pos:R:3:forces:R:3 energy=-7.250730939968452 pbc="F F F"
Ta       0.00000000       0.00000000       0.00000000       0.00000000       0.00000000       0.32280946
Ta       0.00000000       0.00000000       4.70666667       0.00000000       0.00000000      -0.32280946
2
Properties=species:S:1:pos:R:3:forces:R:3 energy=-7.232710384333219 pbc="F F F"
Ta       0.00000000       0.00000000       0.00000000       0.00000000       0.00000000       0.29047251
Ta       0.00000000       0.00000000       4.76545455       0.00000000       0.00000000      -0.29047251
2
Properties=species:S:1:pos:R:3:forces:R:3 energy=-7.216553937648253 pbc="F F F"
Ta       0.00000000       0.00000000       0.00000000       0.00000000       0.00000000       0.25936383
Ta       0.00000000       0.00000000       4.82424242       0.00000000       0.00000000      -0.25936383
2
Properties=species:S:1:pos:R:3:forces:R:3 energy=-7.202188141009213 pbc="F F F"
Ta       0.00000000       0.00000000       0.00000000       0.00000000       0.00000000       0.22967243
Ta       0.00000000       0.00000000       4.88303030       0.00000000       0.00000000      -0.22967243
2
Properties=species:S:1:pos:R:3:forces:R:3 energy=-7.189518817606037 pbc="F F F"
Ta       0.00000000       0.00000000       0.00000000       0.00000000       0.00000000       0.20159911
Ta       0.00000000       0.00000000       4.94181818       0.00000000       0.00000000      -0.20159911
2
Properties=species:S:1:pos:R:3:forces:R:3 energy=-7.178447727177434 pbc="F F F"
Ta       0.00000000       0.00000000       0.00000000       0.00000000       0.00000000       0.17540216
Ta       0.00000000       0.00000000       5.00060606       0.00000000       0.00000000      -0.17540216
2
Properties=species:S:1:pos:R:3:forces:R:3 energy=-7.168853003016108 pbc="F F F"
Ta       0.00000000       0.00000000       0.00000000       0.00000000       0.00000000       0.15137810
Ta       0.00000000       0.00000000       5.05939394       0.00000000       0.00000000      -0.15137810
2
Properties=species:S:1:pos:R:3:forces:R:3 energy=-7.1605995093377075 pbc="F F F"
Ta       0.00000000       0.00000000       0.00000000       0.00000000       0.00000000       0.12988967
Ta       0.00000000       0.00000000       5.11818182       0.00000000       0.00000000      -0.12988967
2
Properties=species:S:1:pos:R:3:forces:R:3 energy=-7.15352354131008 pbc="F F F"
Ta       0.00000000       0.00000000       0.00000000       0.00000000       0.00000000       0.11136246
Ta       0.00000000       0.00000000       5.17696970       0.00000000       0.00000000      -0.11136246
2
Properties=species:S:1:pos:R:3:forces:R:3 energy=-7.147438038583787 pbc="F F F"
Ta       0.00000000       0.00000000       0.00000000       0.00000000       0.00000000       0.09631646
Ta       0.00000000       0.00000000       5.23575758       0.00000000       0.00000000      -0.09631646
2
Properties=species:S:1:pos:R:3:forces:R:3 energy=-7.1421214881567545 pbc="F F F"
Ta       0.00000000       0.00000000       0.00000000       0.00000000       0.00000000       0.08521906
Ta       0.00000000       0.00000000       5.29454545       0.00000000       0.00000000      -0.08521906
2
Properties=species:S:1:pos:R:3:forces:R:3 energy=-7.137344627255139 pbc="F F F"
Ta       0.00000000       0.00000000       0.00000000       0.00000000       0.00000000       0.07779574
Ta       0.00000000       0.00000000       5.35333333       0.00000000       0.00000000      -0.07779574
2
Properties=species:S:1:pos:R:3:forces:R:3 energy=-7.13294762759651 pbc="F F F"
Ta       0.00000000       0.00000000       0.00000000       0.00000000       0.00000000       0.07169513
Ta       0.00000000       0.00000000       5.41212121       0.00000000       0.00000000      -0.07169513
2
Properties=species:S:1:pos:R:3:forces:R:3 energy=-7.128965856854548 pbc="F F F"
Ta       0.00000000       0.00000000       0.00000000       0.00000000       0.00000000       0.06316733
Ta       0.00000000       0.00000000       5.47090909       0.00000000       0.00000000      -0.06316733
2
Properties=species:S:1:pos:R:3:forces:R:3 energy=-7.1255569859302925 pbc="F F F"
Ta       0.00000000       0.00000000       0.00000000       0.00000000       0.00000000       0.05294834
Ta       0.00000000       0.00000000       5.52969697       0.00000000       0.00000000      -0.05294834
2
Properties=species:S:1:pos:R:3:forces:R:3 energy=-7.122687147738657 pbc="F F F"
Ta       0.00000000       0.00000000       0.00000000       0.00000000       0.00000000       0.04515689
Ta       0.00000000       0.00000000       5.58848485       0.00000000       0.00000000      -0.04515689
2
Properties=species:S:1:pos:R:3:forces:R:3 energy=-7.120222455096768 pbc="F F F"
Ta       0.00000000       0.00000000       0.00000000       0.00000000       0.00000000       0.03869037
Ta       0.00000000       0.00000000       5.64727273       0.00000000       0.00000000      -0.03869037
2
Properties=species:S:1:pos:R:3:forces:R:3 energy=-7.118156455216248 pbc="F F F"
Ta       0.00000000       0.00000000       0.00000000       0.00000000       0.00000000       0.03146103
Ta       0.00000000       0.00000000       5.70606061       0.00000000       0.00000000      -0.03146103
2
Properties=species:S:1:pos:R:3:forces:R:3 energy=-7.11649665513085 pbc="F F F"
Ta       0.00000000       0.00000000       0.00000000       0.00000000       0.00000000       0.02571230
Ta       0.00000000       0.00000000       5.76484848       0.00000000       0.00000000      -0.02571230
2
Properties=species:S:1:pos:R:3:forces:R:3 energy=-7.115015108936232 pbc="F F F"
Ta       0.00000000       0.00000000       0.00000000       0.00000000       0.00000000       0.02541968
Ta       0.00000000       0.00000000       5.82363636       0.00000000       0.00000000      -0.02541968
2
Properties=species:S:1:pos:R:3:forces:R:3 energy=-7.11352402174784 pbc="F F F"
Ta       0.00000000       0.00000000       0.00000000       0.00000000       0.00000000       0.02456730
Ta       0.00000000       0.00000000       5.88242424       0.00000000       0.00000000      -0.02456730
2
Properties=species:S:1:pos:R:3:forces:R:3 energy=-7.1122062770471 pbc="F F F"
Ta       0.00000000       0.00000000       0.00000000       0.00000000       0.00000000       0.02002876
Ta       0.00000000       0.00000000       5.94121212       0.00000000       0.00000000      -0.02002876
2
Properties=species:S:1:pos:R:3:forces:R:3 energy=-7.111130439438546 pbc="F F F"
Ta       0.00000000       0.00000000       0.00000000       0.00000000       0.00000000       0.01725321
Ta       0.00000000       0.00000000       6.00000000       0.00000000       0.00000000      -0.01725321
