2
Properties=species:S:1:pos:R:3:forces:R:3 energy=6198.775367485888 pbc="F F F"
Ta       0.00000000       0.00000000       0.00000000       0.00000000       0.00000000 -253170.46875000
Ta       0.00000000       0.00000000       0.18000000       0.00000000       0.00000000  253170.46875000
2
Properties=species:S:1:pos:R:3:forces:R:3 energy=-2567.227562201612 pbc="F F F"
Ta       0.00000000       0.00000000       0.00000000       0.00000000       0.00000000  -80869.84375000
Ta       0.00000000       0.00000000       0.23878788       0.00000000       0.00000000   80869.84375000
2
Properties=species:S:1:pos:R:3:forces:R:3 energy=-5443.982445014112 pbc="F F F"
Ta       0.00000000       0.00000000       0.00000000       0.00000000       0.00000000  -25770.93750000
Ta       0.00000000       0.00000000       0.29757576       0.00000000       0.00000000   25770.93750000
2
Properties=species:S:1:pos:R:3:forces:R:3 energy=-6172.0854723546945 pbc="F F F"
Ta       0.00000000       0.00000000       0.00000000       0.00000000       0.00000000   -1602.91235352
Ta       0.00000000       0.00000000       0.35636364       0.00000000       0.00000000    1602.91235352
2
Properties=species:S:1:pos:R:3:forces:R:3 energy=-5815.901878601527 pbc="F F F"
Ta       0.00000000       0.00000000       0.00000000       0.00000000       0.00000000   12770.00683594
Ta       0.00000000       0.00000000       0.41515152       0.00000000       0.00000000  -12770.00683594
2
Properties=species:S:1:pos:R:3:forces:R:3 energy=-4758.56545281394 pbc="F F F"
Ta       0.00000000       0.00000000       0.00000000       0.00000000       0.00000000   22492.26757812
Ta       0.00000000       0.00000000       0.47393939       0.00000000       0.00000000  -22492.26757812
2
Properties=species:S:1:pos:R:3:forces:R:3 energy=-3266.641624682605 pbc="F F F"
Ta       0.00000000       0.00000000       0.00000000       0.00000000       0.00000000   27303.37695312
Ta       0.00000000       0.00000000       0.53272727       0.00000000       0.00000000  -27303.37695312
2
Properties=species:S:1:pos:R:3:forces:R:3 energy=-1640.6272203667231 pbc="F F F"
Ta       0.00000000       0.00000000       0.00000000       0.00000000       0.00000000   26739.31835938
Ta       0.00000000       0.00000000       0.59151515       0.00000000       0.00000000  -26739.31835938
2
Properties=species:S:1:pos:R:3:forces:R:3 energy=-299.05165881160735 pbc="F F F"
Ta       0.00000000       0.00000000       0.00000000       0.00000000       0.00000000   18560.03710938
Ta       0.00000000       0.00000000       0.65030303       0.00000000       0.00000000  -18560.03710938
2
Properties=species:S:1:pos:R:3:forces:R:3 energy=460.95798478742967 pbc="F F F"
Ta       0.00000000       0.00000000       0.00000000       0.00000000       0.00000000    7457.89892578
Ta       0.00000000       0.00000000       0.70909091       0.00000000       0.00000000   -7457.89892578
2
Properties=species:S:1:pos:R:3:forces:R:3 energy=602.137733392278 pbc="F F F"
Ta       0.00000000       0.00000000       0.00000000       0.00000000       0.00000000    -911.16418457
Ta       0.00000000       0.00000000       0.76787879       0.00000000       0.00000000     911.16418457
2
Properties=species:S:1:pos:R:3:forces:R:3 energy=490.4161148413046 pbc="F F F"
Ta       0.00000000       0.00000000       0.00000000       0.00000000       0.00000000   -1694.95275879
Ta       0.00000000       0.00000000       0.82666667       0.00000000       0.00000000    1694.95275879
2
Properties=species:S:1:pos:R:3:forces:R:3 energy=382.4922563476141 pbc="F F F"
Ta       0.00000000       0.00000000       0.00000000       0.00000000       0.00000000   -1664.43725586
Ta       0.00000000       0.00000000       0.88545455       0.00000000       0.00000000    1664.43725586
2
Properties=species:S:1:pos:R:3:forces:R:3 energy=294.01834907965156 pbc="F F F"
Ta       0.00000000       0.00000000       0.00000000       0.00000000       0.00000000   -1345.96667480
Ta       0.00000000       0.00000000       0.94424242       0.00000000       0.00000000    1345.96667480
2
Properties=species:S:1:pos:R:3:forces:R:3 energy=229.23534460084556 pbc="F F F"
Ta       0.00000000       0.00000000       0.00000000       0.00000000       0.00000000    -886.38372803
Ta       0.00000000       0.00000000       1.00303030       0.00000000       0.00000000     886.38372803
2
Properties=species:S:1:pos:R:3:forces:R:3 energy=181.330666629922 pbc="F F F"
Ta       0.00000000       0.00000000       0.00000000       0.00000000       0.00000000    -758.02099609
Ta       0.00000000       0.00000000       1.06181818       0.00000000       0.00000000     758.02099609
2
Properties=species:S:1:pos:R:3:forces:R:3 energy=139.661340354547 pbc="F F F"
Ta       0.00000000       0.00000000       0.00000000       0.00000000       0.00000000    -657.23962402
Ta       0.00000000       0.00000000       1.12060606       0.00000000       0.00000000     657.23962402
2
Properties=species:S:1:pos:R:3:forces:R:3 energy=104.48819953079399 pbc="F F F"
Ta       0.00000000       0.00000000       0.00000000       0.00000000       0.00000000    -537.05773926
Ta       0.00000000       0.00000000       1.17939394       0.00000000       0.00000000     537.05773926
2
Properties=species:S:1:pos:R:3:forces:R:3 energy=76.42519684289908 pbc="F F F"
Ta       0.00000000       0.00000000       0.00000000       0.00000000       0.00000000    -420.89419556
Ta       0.00000000       0.00000000       1.23818182       0.00000000       0.00000000     420.89419556
2
Properties=species:S:1:pos:R:3:forces:R:3 energy=54.52450976124319 pbc="F F F"
Ta       0.00000000       0.00000000       0.00000000       0.00000000       0.00000000    -328.25643921
Ta       0.00000000       0.00000000       1.29696970       0.00000000       0.00000000     328.25643921
2
Properties=species:S:1:pos:R:3:forces:R:3 energy=37.45636538412487 pbc="F F F"
Ta       0.00000000       0.00000000       0.00000000       0.00000000       0.00000000    -254.58100891
Ta       0.00000000       0.00000000       1.35575758       0.00000000       0.00000000     254.58100891
2
Properties=species:S:1:pos:R:3:forces:R:3 energy=24.378736117051666 pbc="F F F"
Ta       0.00000000       0.00000000       0.00000000       0.00000000       0.00000000    -192.26829529
Ta       0.00000000       0.00000000       1.41454545       0.00000000       0.00000000     192.26829529
2
Properties=species:S:1:pos:R:3:forces:R:3 energy=14.594295353720288 pbc="F F F"
Ta       0.00000000       0.00000000       0.00000000       0.00000000       0.00000000    -142.82258606
Ta       0.00000000       0.00000000       1.47333333       0.00000000       0.00000000     142.82258606
2
Properties=species:S:1:pos:R:3:forces:R:3 energy=7.346161948967553 pbc="F F F"
Ta       0.00000000       0.00000000       0.00000000       0.00000000       0.00000000    -105.59574890
Ta       0.00000000       0.00000000       1.53212121       0.00000000       0.00000000     105.59574890
2
Properties=species:S:1:pos:R:3:forces:R:3 energy=1.9866538078867197 pbc="F F F"
Ta       0.00000000       0.00000000       0.00000000       0.00000000       0.00000000     -78.17948151
Ta       0.00000000       0.00000000       1.59090909       0.00000000       0.00000000      78.17948151
2
Properties=species:S:1:pos:R:3:forces:R:3 energy=-1.9930080297428692 pbc="F F F"
Ta       0.00000000       0.00000000       0.00000000       0.00000000       0.00000000     -58.27818298
Ta       0.00000000       0.00000000       1.64969697       0.00000000       0.00000000      58.27818298
2
Properties=species:S:1:pos:R:3:forces:R:3 energy=-4.970598619965604 pbc="F F F"
Ta       0.00000000       0.00000000       0.00000000       0.00000000       0.00000000     -43.75557327
Ta       0.00000000       0.00000000       1.70848485       0.00000000       0.00000000      43.75557327
2
Properties=species:S:1:pos:R:3:forces:R:3 energy=-7.2085914351291445 pbc="F F F"
Ta       0.00000000       0.00000000       0.00000000       0.00000000       0.00000000     -32.87863159
Ta       0.00000000       0.00000000       1.76727273       0.00000000       0.00000000      32.87863159
2
Properties=species:S:1:pos:R:3:forces:R:3 energy=-8.885223290878418 pbc="F F F"
Ta       0.00000000       0.00000000       0.00000000       0.00000000       0.00000000     -24.51070213
Ta       0.00000000       0.00000000       1.82606061       0.00000000       0.00000000      24.51070213
2
Properties=species:S:1:pos:R:3:forces:R:3 energy=-10.125731029561233 pbc="F F F"
Ta       0.00000000       0.00000000       0.00000000       0.00000000       0.00000000     -17.95211220
Ta       0.00000000       0.00000000       1.88484848       0.00000000       0.00000000      17.95211220
2
Properties=species:S:1:pos:R:3:forces:R:3 energy=-11.023124454188242 pbc="F F F"
Ta       0.00000000       0.00000000       0.00000000       0.00000000       0.00000000     -12.78423882
Ta       0.00000000       0.00000000       1.94363636       0.00000000       0.00000000      12.78423882
2
Properties=species:S:1:pos:R:3:forces:R:3 energy=-11.650587508434052 pbc="F F F"
Ta       0.00000000       0.00000000       0.00000000       0.00000000       0.00000000      -8.72625828
Ta       0.00000000       0.00000000       2.00242424       0.00000000       0.00000000       8.72625828
2
Properties=species:S:1:pos:R:3:forces:R:3 energy=-12.065966248963315 pbc="F F F"
Ta       0.00000000       0.00000000       0.00000000       0.00000000       0.00000000      -5.52899361
Ta       0.00000000       0.00000000       2.06121212       0.00000000       0.00000000       5.52899361
2
Properties=species:S:1:pos:R:3:forces:R:3 energy=-12.31319184155239 pbc="F F F"
Ta       0.00000000       0.00000000       0.00000000       0.00000000       0.00000000      -2.97289920
Ta       0.00000000       0.00000000       2.12000000       0.00000000       0.00000000       2.97289920
2
Properties=species:S:1:pos:R:3:forces:R:3 energy=-12.424757449694035 pbc="F F F"
Ta       0.00000000       0.00000000       0.00000000       0.00000000       0.00000000      -0.89116013
Ta       0.00000000       0.00000000       2.17878788       0.00000000       0.00000000       0.89116013
2
Properties=species:S:1:pos:R:3:forces:R:3 energy=-12.425281288556373 pbc="F F F"
Ta       0.00000000       0.00000000       0.00000000       0.00000000       0.00000000       0.81468487
Ta       0.00000000       0.00000000       2.23757576       0.00000000       0.00000000      -0.81468487
2
Properties=species:S:1:pos:R:3:forces:R:3 energy=-12.33590065238933 pbc="F F F"
Ta       0.00000000       0.00000000       0.00000000       0.00000000       0.00000000       2.16547060
Ta       0.00000000       0.00000000       2.29636364       0.00000000       0.00000000      -2.16547060
2
Properties=species:S:1:pos:R:3:forces:R:3 energy=-12.177983133295275 pbc="F F F"
Ta       0.00000000       0.00000000       0.00000000       0.00000000       0.00000000       3.14466572
Ta       0.00000000       0.00000000       2.35515152       0.00000000       0.00000000      -3.14466572
2
Properties=species:S:1:pos:R:3:forces:R:3 energy=-11.973195992204127 pbc="F F F"
Ta       0.00000000       0.00000000       0.00000000       0.00000000       0.00000000       3.76707149
Ta       0.00000000       0.00000000       2.41393939       0.00000000       0.00000000      -3.76707149
2
Properties=species:S:1:pos:R:3:forces:R:3 energy=-11.740724420613269 pbc="F F F"
Ta       0.00000000       0.00000000       0.00000000       0.00000000       0.00000000       4.10139370
Ta       0.00000000       0.00000000       2.47272727       0.00000000       0.00000000      -4.10139370
2
Properties=species:S:1:pos:R:3:forces:R:3 energy=-11.494802987641881 pbc="F F F"
Ta       0.00000000       0.00000000       0.00000000       0.00000000       0.00000000       4.23967171
Ta       0.00000000       0.00000000       2.53151515       0.00000000       0.00000000      -4.23967171
2
Properties=species:S:1:pos:R:3:forces:R:3 energy=-11.24453055403395 pbc="F F F"
Ta       0.00000000       0.00000000       0.00000000       0.00000000       0.00000000       4.26009893
Ta       0.00000000       0.00000000       2.59030303       0.00000000       0.00000000      -4.26009893
2
Properties=species:S:1:pos:R:3:forces:R:3 energy=-10.995232904382295 pbc="F F F"
Ta       0.00000000       0.00000000       0.00000000       0.00000000       0.00000000       4.21261024
Ta       0.00000000       0.00000000       2.64909091       0.00000000       0.00000000      -4.21261024
2
Properties=species:S:1:pos:R:3:forces:R:3 energy=-10.750038736142546 pbc="F F F"
Ta       0.00000000       0.00000000       0.00000000       0.00000000       0.00000000       4.12345648
Ta       0.00000000       0.00000000       2.70787879       0.00000000       0.00000000      -4.12345648
2
Properties=species:S:1:pos:R:3:forces:R:3 energy=-10.510985905361666 pbc="F F F"
Ta       0.00000000       0.00000000       0.00000000       0.00000000       0.00000000       4.00493860
Ta       0.00000000       0.00000000       2.76666667       0.00000000       0.00000000      -4.00493860
2
Properties=species:S:1:pos:R:3:forces:R:3 energy=-10.279617326766495 pbc="F F F"
Ta       0.00000000       0.00000000       0.00000000       0.00000000       0.00000000       3.86270690
Ta       0.00000000       0.00000000       2.82545455       0.00000000       0.00000000      -3.86270690
2
Properties=species:S:1:pos:R:3:forces:R:3 energy=-10.057231774429692 pbc="F F F"
Ta       0.00000000       0.00000000       0.00000000       0.00000000       0.00000000       3.69974256
Ta       0.00000000       0.00000000       2.88424242       0.00000000       0.00000000      -3.69974256
2
Properties=species:S:1:pos:R:3:forces:R:3 energy=-9.844968523754838 pbc="F F F"
Ta       0.00000000       0.00000000       0.00000000       0.00000000       0.00000000       3.51895642
Ta       0.00000000       0.00000000       2.94303030       0.00000000       0.00000000      -3.51895642
2
Properties=species:S:1:pos:R:3:forces:R:3 energy=-9.64373554594309 pbc="F F F"
Ta       0.00000000       0.00000000       0.00000000       0.00000000       0.00000000       3.32561350
Ta       0.00000000       0.00000000       3.00181818       0.00000000       0.00000000      -3.32561350
2
Properties=species:S:1:pos:R:3:forces:R:3 energy=-9.454024537142743 pbc="F F F"
Ta       0.00000000       0.00000000       0.00000000       0.00000000       0.00000000       3.12882853
Ta       0.00000000       0.00000000       3.06060606       0.00000000       0.00000000      -3.12882853
2
Properties=species:S:1:pos:R:3:forces:R:3 energy=-9.275709994417324 pbc="F F F"
Ta       0.00000000       0.00000000       0.00000000       0.00000000       0.00000000       2.93971825
Ta       0.00000000       0.00000000       3.11939394       0.00000000       0.00000000      -2.93971825
2
Properties=species:S:1:pos:R:3:forces:R:3 energy=-9.108090965214558 pbc="F F F"
Ta       0.00000000       0.00000000       0.00000000       0.00000000       0.00000000       2.76532412
Ta       0.00000000       0.00000000       3.17818182       0.00000000       0.00000000      -2.76532412
2
Properties=species:S:1:pos:R:3:forces:R:3 energy=-8.950299988808226 pbc="F F F"
Ta       0.00000000       0.00000000       0.00000000       0.00000000       0.00000000       2.60474062
Ta       0.00000000       0.00000000       3.23696970       0.00000000       0.00000000      -2.60474062
2
Properties=species:S:1:pos:R:3:forces:R:3 energy=-8.801658348909202 pbc="F F F"
Ta       0.00000000       0.00000000       0.00000000       0.00000000       0.00000000       2.45342946
Ta       0.00000000       0.00000000       3.29575758       0.00000000       0.00000000      -2.45342946
2
Properties=species:S:1:pos:R:3:forces:R:3 energy=-8.66171312032925 pbc="F F F"
Ta       0.00000000       0.00000000       0.00000000       0.00000000       0.00000000       2.30854249
Ta       0.00000000       0.00000000       3.35454545       0.00000000       0.00000000      -2.30854249
2
Properties=species:S:1:pos:R:3:forces:R:3 energy=-8.530128036913007 pbc="F F F"
Ta       0.00000000       0.00000000       0.00000000       0.00000000       0.00000000       2.16876411
Ta       0.00000000       0.00000000       3.41333333       0.00000000       0.00000000      -2.16876411
2
Properties=species:S:1:pos:R:3:forces:R:3 energy=-8.406649847145575 pbc="F F F"
Ta       0.00000000       0.00000000       0.00000000       0.00000000       0.00000000       2.03246760
Ta       0.00000000       0.00000000       3.47212121       0.00000000       0.00000000      -2.03246760
2
Properties=species:S:1:pos:R:3:forces:R:3 energy=-8.29113422188084 pbc="F F F"
Ta       0.00000000       0.00000000       0.00000000       0.00000000       0.00000000       1.89748693
Ta       0.00000000       0.00000000       3.53090909       0.00000000       0.00000000      -1.89748693
2
Properties=species:S:1:pos:R:3:forces:R:3 energy=-8.183563183190214 pbc="F F F"
Ta       0.00000000       0.00000000       0.00000000       0.00000000       0.00000000       1.76193821
Ta       0.00000000       0.00000000       3.58969697       0.00000000       0.00000000      -1.76193821
2
Properties=species:S:1:pos:R:3:forces:R:3 energy=-8.083997780950108 pbc="F F F"
Ta       0.00000000       0.00000000       0.00000000       0.00000000       0.00000000       1.62514007
Ta       0.00000000       0.00000000       3.64848485       0.00000000       0.00000000      -1.62514007
2
Properties=species:S:1:pos:R:3:forces:R:3 energy=-7.992492421954038 pbc="F F F"
Ta       0.00000000       0.00000000       0.00000000       0.00000000       0.00000000       1.48810577
Ta       0.00000000       0.00000000       3.70727273       0.00000000       0.00000000      -1.48810577
2
Properties=species:S:1:pos:R:3:forces:R:3 energy=-7.9089880260715715 pbc="F F F"
Ta       0.00000000       0.00000000       0.00000000       0.00000000       0.00000000       1.35336626
Ta       0.00000000       0.00000000       3.76606061       0.00000000       0.00000000      -1.35336626
2
Properties=species:S:1:pos:R:3:forces:R:3 energy=-7.833256174288502 pbc="F F F"
Ta       0.00000000       0.00000000       0.00000000       0.00000000       0.00000000       1.22435641
Ta       0.00000000       0.00000000       3.82484848       0.00000000       0.00000000      -1.22435641
2
Properties=species:S:1:pos:R:3:forces:R:3 energy=-7.764855206346246 pbc="F F F"
Ta       0.00000000       0.00000000       0.00000000       0.00000000       0.00000000       1.10442674
Ta       0.00000000       0.00000000       3.88363636       0.00000000       0.00000000      -1.10442674
2
Properties=species:S:1:pos:R:3:forces:R:3 energy=-7.703174191130699 pbc="F F F"
Ta       0.00000000       0.00000000       0.00000000       0.00000000       0.00000000       0.99608821
Ta       0.00000000       0.00000000       3.94242424       0.00000000       0.00000000      -0.99608821
2
Properties=species:S:1:pos:R:3:forces:R:3 energy=-7.647488856003924 pbc="F F F"
Ta       0.00000000       0.00000000       0.00000000       0.00000000       0.00000000       0.90055758
Ta       0.00000000       0.00000000       4.00121212       0.00000000       0.00000000      -0.90055758
2
Properties=species:S:1:pos:R:3:forces:R:3 energy=-7.597041237616505 pbc="F F F"
Ta       0.00000000       0.00000000       0.00000000       0.00000000       0.00000000       0.81773144
Ta       0.00000000       0.00000000       4.06000000       0.00000000       0.00000000      -0.81773144
2
Properties=species:S:1:pos:R:3:forces:R:3 energy=-7.5511155116869855 pbc="F F F"
Ta       0.00000000       0.00000000       0.00000000       0.00000000       0.00000000       0.74649769
Ta       0.00000000       0.00000000       4.11878788       0.00000000       0.00000000      -0.74649769
2
Properties=species:S:1:pos:R:3:forces:R:3 energy=-7.509078155029115 pbc="F F F"
Ta       0.00000000       0.00000000       0.00000000       0.00000000       0.00000000       0.68510520
Ta       0.00000000       0.00000000       4.17757576       0.00000000       0.00000000      -0.68510520
2
Properties=species:S:1:pos:R:3:forces:R:3 energy=-7.470408958974063 pbc="F F F"
Ta       0.00000000       0.00000000       0.00000000       0.00000000       0.00000000       0.63158423
Ta       0.00000000       0.00000000       4.23636364       0.00000000       0.00000000      -0.63158423
2
Properties=species:S:1:pos:R:3:forces:R:3 energy=-7.434701455522421 pbc="F F F"
Ta       0.00000000       0.00000000       0.00000000       0.00000000       0.00000000       0.58403170
Ta       0.00000000       0.00000000       4.29515152       0.00000000       0.00000000      -0.58403170
2
Properties=species:S:1:pos:R:3:forces:R:3 energy=-7.401656895859194 pbc="F F F"
Ta       0.00000000       0.00000000       0.00000000       0.00000000       0.00000000       0.54082209
Ta       0.00000000       0.00000000       4.35393939       0.00000000       0.00000000      -0.54082209
2
Properties=species:S:1:pos:R:3:forces:R:3 energy=-7.371055983912924 pbc="F F F"
Ta       0.00000000       0.00000000       0.00000000       0.00000000       0.00000000       0.50065368
Ta       0.00000000       0.00000000       4.41272727       0.00000000       0.00000000      -0.50065368
2
Properties=species:S:1:pos:R:3:forces:R:3 energy=-7.342749974840801 pbc="F F F"
Ta       0.00000000       0.00000000       0.00000000       0.00000000       0.00000000       0.46260202
Ta       0.00000000       0.00000000       4.47151515       0.00000000       0.00000000      -0.46260202
2
Properties=species:S:1:pos:R:3:forces:R:3 energy=-7.316634881472609 pbc="F F F"
Ta       0.00000000       0.00000000       0.00000000       0.00000000       0.00000000       0.42604956
Ta       0.00000000       0.00000000       4.53030303       0.00000000       0.00000000      -0.42604956
2
Properties=species:S:1:pos:R:3:forces:R:3 energy=-7.2926347850101845 pbc="F F F"
Ta       0.00000000       0.00000000       0.00000000       0.00000000       0.00000000       0.39064330
Ta       0.00000000       0.00000000       4.58909091       0.00000000       0.00000000      -0.39064330
2
Properties=species:S:1:pos:R:3:forces:R:3 energy=-7.27068610256902 pbc="F F F"
Ta       0.00000000       0.00000000       0.00000000       0.00000000       0.00000000       0.35623252
Ta       0.00000000       0.00000000       4.64787879       0.00000000       0.00000000      -0.35623252
2
Properties=species:S:1:pos:R:3:forces:R:3 energy=-7.250730939968452 pbc="F F F"
Ta       0.00000000       0.00000000       0.00000000       0.00000000       0.00000000       0.32280919
Ta       0.00000000       0.00000000       4.70666667       0.00000000       0.00000000      -0.32280919
2
Properties=species:S:1:pos:R:3:forces:R:3 energy=-7.232710384333219 pbc="F F F"
Ta       0.00000000       0.00000000       0.00000000       0.00000000       0.00000000       0.29047212
Ta       0.00000000       0.00000000       4.76545455       0.00000000       0.00000000      -0.29047212
2
Properties=species:S:1:pos:R:3:forces:R:3 energy=-7.216554414485411 pbc="F F F"
Ta       0.00000000       0.00000000       0.00000000       0.00000000       0.00000000       0.25936541
Ta       0.00000000       0.00000000       4.82424242       0.00000000       0.00000000      -0.25936541
2
Properties=species:S:1:pos:R:3:forces:R:3 energy=-7.202188141009213 pbc="F F F"
Ta       0.00000000       0.00000000       0.00000000       0.00000000       0.00000000       0.22967258
Ta       0.00000000       0.00000000       4.88303030       0.00000000       0.00000000      -0.22967258
2
Properties=species:S:1:pos:R:3:forces:R:3 energy=-7.189518817606037 pbc="F F F"
Ta       0.00000000       0.00000000       0.00000000       0.00000000       0.00000000       0.20159939
Ta       0.00000000       0.00000000       4.94181818       0.00000000       0.00000000      -0.20159939
2
Properties=species:S:1:pos:R:3:forces:R:3 energy=-7.178446773503118 pbc="F F F"
Ta       0.00000000       0.00000000       0.00000000       0.00000000       0.00000000       0.17540078
Ta       0.00000000       0.00000000       5.00060606       0.00000000       0.00000000      -0.17540078
2
Properties=species:S:1:pos:R:3:forces:R:3 energy=-7.168853003016108 pbc="F F F"
Ta       0.00000000       0.00000000       0.00000000       0.00000000       0.00000000       0.15137751
Ta       0.00000000       0.00000000       5.05939394       0.00000000       0.00000000      -0.15137751
2
Properties=species:S:1:pos:R:3:forces:R:3 energy=-7.160599032500549 pbc="F F F"
Ta       0.00000000       0.00000000       0.00000000       0.00000000       0.00000000       0.12988827
Ta       0.00000000       0.00000000       5.11818182       0.00000000       0.00000000      -0.12988827
2
Properties=species:S:1:pos:R:3:forces:R:3 energy=-7.153523547645725 pbc="F F F"
Ta       0.00000000       0.00000000       0.00000000       0.00000000       0.00000000       0.11136293
Ta       0.00000000       0.00000000       5.17696970       0.00000000       0.00000000      -0.11136293
2
Properties=species:S:1:pos:R:3:forces:R:3 energy=-7.147438038583787 pbc="F F F"
Ta       0.00000000       0.00000000       0.00000000       0.00000000       0.00000000       0.09631596
Ta       0.00000000       0.00000000       5.23575758       0.00000000       0.00000000      -0.09631596
2
Properties=species:S:1:pos:R:3:forces:R:3 energy=-7.142121964993913 pbc="F F F"
Ta       0.00000000       0.00000000       0.00000000       0.00000000       0.00000000       0.08521900
Ta       0.00000000       0.00000000       5.29454545       0.00000000       0.00000000      -0.08521900
2
Properties=species:S:1:pos:R:3:forces:R:3 energy=-7.137344639926428 pbc="F F F"
Ta       0.00000000       0.00000000       0.00000000       0.00000000       0.00000000       0.07779560
Ta       0.00000000       0.00000000       5.35333333       0.00000000       0.00000000      -0.07779560
2
Properties=species:S:1:pos:R:3:forces:R:3 energy=-7.132947150759351 pbc="F F F"
Ta       0.00000000       0.00000000       0.00000000       0.00000000       0.00000000       0.07169691
Ta       0.00000000       0.00000000       5.41212121       0.00000000       0.00000000      -0.07169691
2
Properties=species:S:1:pos:R:3:forces:R:3 energy=-7.128965856854548 pbc="F F F"
Ta       0.00000000       0.00000000       0.00000000       0.00000000       0.00000000       0.06316765
Ta       0.00000000       0.00000000       5.47090909       0.00000000       0.00000000      -0.06316765
2
Properties=species:S:1:pos:R:3:forces:R:3 energy=-7.125556995433759 pbc="F F F"
Ta       0.00000000       0.00000000       0.00000000       0.00000000       0.00000000       0.05294836
Ta       0.00000000       0.00000000       5.52969697       0.00000000       0.00000000      -0.05294836
2
Properties=species:S:1:pos:R:3:forces:R:3 energy=-7.122687147738657 pbc="F F F"
Ta       0.00000000       0.00000000       0.00000000       0.00000000       0.00000000       0.04515694
Ta       0.00000000       0.00000000       5.58848485       0.00000000       0.00000000      -0.04515694
2
Properties=species:S:1:pos:R:3:forces:R:3 energy=-7.120221501422452 pbc="F F F"
Ta       0.00000000       0.00000000       0.00000000       0.00000000       0.00000000       0.03868888
Ta       0.00000000       0.00000000       5.64727273       0.00000000       0.00000000      -0.03868888
2
Properties=species:S:1:pos:R:3:forces:R:3 energy=-7.118156467887537 pbc="F F F"
Ta       0.00000000       0.00000000       0.00000000       0.00000000       0.00000000       0.03146229
Ta       0.00000000       0.00000000       5.70606061       0.00000000       0.00000000      -0.03146229
2
Properties=species:S:1:pos:R:3:forces:R:3 energy=-7.11649665513085 pbc="F F F"
Ta       0.00000000       0.00000000       0.00000000       0.00000000       0.00000000       0.02571164
Ta       0.00000000       0.00000000       5.76484848       0.00000000       0.00000000      -0.02571164
2
Properties=species:S:1:pos:R:3:forces:R:3 energy=-7.115015108936232 pbc="F F F"
Ta       0.00000000       0.00000000       0.00000000       0.00000000       0.00000000       0.02541512
Ta       0.00000000       0.00000000       5.82363636       0.00000000       0.00000000      -0.02541512
2
Properties=species:S:1:pos:R:3:forces:R:3 energy=-7.113524026499573 pbc="F F F"
Ta       0.00000000       0.00000000       0.00000000       0.00000000       0.00000000       0.02456626
Ta       0.00000000       0.00000000       5.88242424       0.00000000       0.00000000      -0.02456626
2
Properties=species:S:1:pos:R:3:forces:R:3 energy=-7.1122062770471 pbc="F F F"
Ta       0.00000000       0.00000000       0.00000000       0.00000000       0.00000000       0.02002789
Ta       0.00000000       0.00000000       5.94121212       0.00000000       0.00000000      -0.02002789
2
Properties=species:S:1:pos:R:3:forces:R:3 energy=-7.111130439438546 pbc="F F F"
Ta       0.00000000       0.00000000       0.00000000       0.00000000       0.00000000       0.01725321
Ta       0.00000000       0.00000000       6.00000000       0.00000000       0.00000000      -0.01725321
