2
Properties=species:S:1:pos:R:3:forces:R:3 energy=80004.57610558692 pbc="F F F"
Tb       0.00000000       0.00000000       0.00000000       0.00000000       0.00000000 -219362.54687500
Tb       0.00000000       0.00000000       0.18000000       0.00000000       0.00000000  219362.54687500
2
Properties=species:S:1:pos:R:3:forces:R:3 energy=71942.41204308692 pbc="F F F"
Tb       0.00000000       0.00000000       0.00000000       0.00000000       0.00000000  -85940.77343750
Tb       0.00000000       0.00000000       0.23878788       0.00000000       0.00000000   85940.77343750
2
Properties=species:S:1:pos:R:3:forces:R:3 energy=67947.13079308692 pbc="F F F"
Tb       0.00000000       0.00000000       0.00000000       0.00000000       0.00000000  -58979.57421875
Tb       0.00000000       0.00000000       0.29757576       0.00000000       0.00000000   58979.57421875
2
Properties=species:S:1:pos:R:3:forces:R:3 energy=64312.814386836915 pbc="F F F"
Tb       0.00000000       0.00000000       0.00000000       0.00000000       0.00000000  -68773.01562500
Tb       0.00000000       0.00000000       0.35636364       0.00000000       0.00000000   68773.01562500
2
Properties=species:S:1:pos:R:3:forces:R:3 energy=59502.845636836915 pbc="F F F"
Tb       0.00000000       0.00000000       0.00000000       0.00000000       0.00000000  -97066.28125000
Tb       0.00000000       0.00000000       0.41515152       0.00000000       0.00000000   97066.28125000
2
Properties=species:S:1:pos:R:3:forces:R:3 energy=52721.208918086915 pbc="F F F"
Tb       0.00000000       0.00000000       0.00000000       0.00000000       0.00000000 -134363.26562500
Tb       0.00000000       0.00000000       0.47393939       0.00000000       0.00000000  134363.26562500
2
Properties=species:S:1:pos:R:3:forces:R:3 energy=43905.10344936226 pbc="F F F"
Tb       0.00000000       0.00000000       0.00000000       0.00000000       0.00000000 -160484.75000000
Tb       0.00000000       0.00000000       0.53272727       0.00000000       0.00000000  160484.75000000
2
Properties=species:S:1:pos:R:3:forces:R:3 energy=33713.9784493876 pbc="F F F"
Tb       0.00000000       0.00000000       0.00000000       0.00000000       0.00000000 -182992.43750000
Tb       0.00000000       0.00000000       0.59151515       0.00000000       0.00000000  182992.43750000
2
Properties=species:S:1:pos:R:3:forces:R:3 energy=22931.187433800616 pbc="F F F"
Tb       0.00000000       0.00000000       0.00000000       0.00000000       0.00000000 -173171.90625000
Tb       0.00000000       0.00000000       0.65030303       0.00000000       0.00000000  173171.90625000
2
Properties=species:S:1:pos:R:3:forces:R:3 energy=13503.0458322888 pbc="F F F"
Tb       0.00000000       0.00000000       0.00000000       0.00000000       0.00000000 -143270.25000000
Tb       0.00000000       0.00000000       0.70909091       0.00000000       0.00000000  143270.25000000
2
Properties=species:S:1:pos:R:3:forces:R:3 energy=5776.599543314999 pbc="F F F"
Tb       0.00000000       0.00000000       0.00000000       0.00000000       0.00000000 -109457.04687500
Tb       0.00000000       0.00000000       0.76787879       0.00000000       0.00000000  109457.04687500
2
Properties=species:S:1:pos:R:3:forces:R:3 energy=1538.5339916965709 pbc="F F F"
Tb       0.00000000       0.00000000       0.00000000       0.00000000       0.00000000  -40385.76953125
Tb       0.00000000       0.00000000       0.82666667       0.00000000       0.00000000   40385.76953125
2
Properties=species:S:1:pos:R:3:forces:R:3 energy=255.33950337392088 pbc="F F F"
Tb       0.00000000       0.00000000       0.00000000       0.00000000       0.00000000   -8353.43750000
Tb       0.00000000       0.00000000       0.88545455       0.00000000       0.00000000    8353.43750000
2
Properties=species:S:1:pos:R:3:forces:R:3 energy=89.11671006091636 pbc="F F F"
Tb       0.00000000       0.00000000       0.00000000       0.00000000       0.00000000    -190.52200317
Tb       0.00000000       0.00000000       0.94424242       0.00000000       0.00000000     190.52200317
2
Properties=species:S:1:pos:R:3:forces:R:3 energy=97.47134758705111 pbc="F F F"
Tb       0.00000000       0.00000000       0.00000000       0.00000000       0.00000000      37.80018234
Tb       0.00000000       0.00000000       1.00303030       0.00000000       0.00000000     -37.80018234
2
Properties=species:S:1:pos:R:3:forces:R:3 energy=90.79465130388762 pbc="F F F"
Tb       0.00000000       0.00000000       0.00000000       0.00000000       0.00000000    -141.75064087
Tb       0.00000000       0.00000000       1.06181818       0.00000000       0.00000000     141.75064087
2
Properties=species:S:1:pos:R:3:forces:R:3 energy=83.2112779646997 pbc="F F F"
Tb       0.00000000       0.00000000       0.00000000       0.00000000       0.00000000    -167.75354004
Tb       0.00000000       0.00000000       1.12060606       0.00000000       0.00000000     167.75354004
2
Properties=species:S:1:pos:R:3:forces:R:3 energy=71.8890818785694 pbc="F F F"
Tb       0.00000000       0.00000000       0.00000000       0.00000000       0.00000000    -182.47918701
Tb       0.00000000       0.00000000       1.17939394       0.00000000       0.00000000     182.47918701
2
Properties=species:S:1:pos:R:3:forces:R:3 energy=62.1464377553135 pbc="F F F"
Tb       0.00000000       0.00000000       0.00000000       0.00000000       0.00000000    -150.88935852
Tb       0.00000000       0.00000000       1.23818182       0.00000000       0.00000000     150.88935852
2
Properties=species:S:1:pos:R:3:forces:R:3 energy=53.90724243516794 pbc="F F F"
Tb       0.00000000       0.00000000       0.00000000       0.00000000       0.00000000    -131.00291443
Tb       0.00000000       0.00000000       1.29696970       0.00000000       0.00000000     131.00291443
2
Properties=species:S:1:pos:R:3:forces:R:3 energy=46.59288270023916 pbc="F F F"
Tb       0.00000000       0.00000000       0.00000000       0.00000000       0.00000000    -118.84500885
Tb       0.00000000       0.00000000       1.35575758       0.00000000       0.00000000     118.84500885
2
Properties=species:S:1:pos:R:3:forces:R:3 energy=39.85805605743907 pbc="F F F"
Tb       0.00000000       0.00000000       0.00000000       0.00000000       0.00000000    -110.75603485
Tb       0.00000000       0.00000000       1.41454545       0.00000000       0.00000000     110.75603485
2
Properties=species:S:1:pos:R:3:forces:R:3 energy=33.50833891992959 pbc="F F F"
Tb       0.00000000       0.00000000       0.00000000       0.00000000       0.00000000    -105.59793854
Tb       0.00000000       0.00000000       1.47333333       0.00000000       0.00000000     105.59793854
2
Properties=species:S:1:pos:R:3:forces:R:3 energy=27.477727602313834 pbc="F F F"
Tb       0.00000000       0.00000000       0.00000000       0.00000000       0.00000000     -98.64372253
Tb       0.00000000       0.00000000       1.53212121       0.00000000       0.00000000      98.64372253
2
Properties=species:S:1:pos:R:3:forces:R:3 energy=22.04170627837383 pbc="F F F"
Tb       0.00000000       0.00000000       0.00000000       0.00000000       0.00000000     -85.37073517
Tb       0.00000000       0.00000000       1.59090909       0.00000000       0.00000000      85.37073517
2
Properties=species:S:1:pos:R:3:forces:R:3 energy=17.48100252465352 pbc="F F F"
Tb       0.00000000       0.00000000       0.00000000       0.00000000       0.00000000     -70.01557922
Tb       0.00000000       0.00000000       1.64969697       0.00000000       0.00000000      70.01557922
2
Properties=species:S:1:pos:R:3:forces:R:3 energy=13.746000595209143 pbc="F F F"
Tb       0.00000000       0.00000000       0.00000000       0.00000000       0.00000000     -57.69282150
Tb       0.00000000       0.00000000       1.70848485       0.00000000       0.00000000      57.69282150
2
Properties=species:S:1:pos:R:3:forces:R:3 energy=10.633882788582495 pbc="F F F"
Tb       0.00000000       0.00000000       0.00000000       0.00000000       0.00000000     -48.58193588
Tb       0.00000000       0.00000000       1.76727273       0.00000000       0.00000000      48.58193588
2
Properties=species:S:1:pos:R:3:forces:R:3 energy=8.002175095000812 pbc="F F F"
Tb       0.00000000       0.00000000       0.00000000       0.00000000       0.00000000     -41.12821198
Tb       0.00000000       0.00000000       1.82606061       0.00000000       0.00000000      41.12821198
2
Properties=species:S:1:pos:R:3:forces:R:3 energy=5.7826156803414275 pbc="F F F"
Tb       0.00000000       0.00000000       0.00000000       0.00000000       0.00000000     -34.49005890
Tb       0.00000000       0.00000000       1.88484848       0.00000000       0.00000000      34.49005890
2
Properties=species:S:1:pos:R:3:forces:R:3 energy=3.9358375610721583 pbc="F F F"
Tb       0.00000000       0.00000000       0.00000000       0.00000000       0.00000000     -28.42353439
Tb       0.00000000       0.00000000       1.94363636       0.00000000       0.00000000      28.42353439
2
Properties=species:S:1:pos:R:3:forces:R:3 energy=2.4313675706160627 pbc="F F F"
Tb       0.00000000       0.00000000       0.00000000       0.00000000       0.00000000     -22.83722115
Tb       0.00000000       0.00000000       2.00242424       0.00000000       0.00000000      22.83722115
2
Properties=species:S:1:pos:R:3:forces:R:3 energy=1.2409229192249842 pbc="F F F"
Tb       0.00000000       0.00000000       0.00000000       0.00000000       0.00000000     -17.75489044
Tb       0.00000000       0.00000000       2.06121212       0.00000000       0.00000000      17.75489044
2
Properties=species:S:1:pos:R:3:forces:R:3 energy=0.33159530523097325 pbc="F F F"
Tb       0.00000000       0.00000000       0.00000000       0.00000000       0.00000000     -13.29689121
Tb       0.00000000       0.00000000       2.12000000       0.00000000       0.00000000      13.29689121
2
Properties=species:S:1:pos:R:3:forces:R:3 energy=-0.33739726236947476 pbc="F F F"
Tb       0.00000000       0.00000000       0.00000000       0.00000000       0.00000000      -9.59889793
Tb       0.00000000       0.00000000       2.17878788       0.00000000       0.00000000       9.59889793
2
Properties=species:S:1:pos:R:3:forces:R:3 energy=-0.8135961454539047 pbc="F F F"
Tb       0.00000000       0.00000000       0.00000000       0.00000000       0.00000000      -6.74383974
Tb       0.00000000       0.00000000       2.23757576       0.00000000       0.00000000       6.74383974
2
Properties=species:S:1:pos:R:3:forces:R:3 energy=-1.1464537335975633 pbc="F F F"
Tb       0.00000000       0.00000000       0.00000000       0.00000000       0.00000000      -4.70939255
Tb       0.00000000       0.00000000       2.29636364       0.00000000       0.00000000       4.70939255
2
Properties=species:S:1:pos:R:3:forces:R:3 energy=-1.381132917429282 pbc="F F F"
Tb       0.00000000       0.00000000       0.00000000       0.00000000       0.00000000      -3.37907505
Tb       0.00000000       0.00000000       2.35515152       0.00000000       0.00000000       3.37907505
2
Properties=species:S:1:pos:R:3:forces:R:3 energy=-1.5543580048489167 pbc="F F F"
Tb       0.00000000       0.00000000       0.00000000       0.00000000       0.00000000      -2.58940101
Tb       0.00000000       0.00000000       2.41393939       0.00000000       0.00000000       2.58940101
2
Properties=species:S:1:pos:R:3:forces:R:3 energy=-1.6926419261283174 pbc="F F F"
Tb       0.00000000       0.00000000       0.00000000       0.00000000       0.00000000      -2.16026664
Tb       0.00000000       0.00000000       2.47272727       0.00000000       0.00000000       2.16026664
2
Properties=species:S:1:pos:R:3:forces:R:3 energy=-1.8121137164785701 pbc="F F F"
Tb       0.00000000       0.00000000       0.00000000       0.00000000       0.00000000      -1.92472112
Tb       0.00000000       0.00000000       2.53151515       0.00000000       0.00000000       1.92472112
2
Properties=species:S:1:pos:R:3:forces:R:3 energy=-1.920319806428973 pbc="F F F"
Tb       0.00000000       0.00000000       0.00000000       0.00000000       0.00000000      -1.76159179
Tb       0.00000000       0.00000000       2.59030303       0.00000000       0.00000000       1.76159179
2
Properties=species:S:1:pos:R:3:forces:R:3 energy=-2.019344794314592 pbc="F F F"
Tb       0.00000000       0.00000000       0.00000000       0.00000000       0.00000000      -1.60545301
Tb       0.00000000       0.00000000       2.64909091       0.00000000       0.00000000       1.60545301
2
Properties=species:S:1:pos:R:3:forces:R:3 energy=-2.1087348358587987 pbc="F F F"
Tb       0.00000000       0.00000000       0.00000000       0.00000000       0.00000000      -1.43219936
Tb       0.00000000       0.00000000       2.70787879       0.00000000       0.00000000       1.43219936
2
Properties=species:S:1:pos:R:3:forces:R:3 energy=-2.1873304288113626 pbc="F F F"
Tb       0.00000000       0.00000000       0.00000000       0.00000000       0.00000000      -1.23845339
Tb       0.00000000       0.00000000       2.76666667       0.00000000       0.00000000       1.23845339
2
Properties=species:S:1:pos:R:3:forces:R:3 energy=-2.2540107707595993 pbc="F F F"
Tb       0.00000000       0.00000000       0.00000000       0.00000000       0.00000000      -1.02754354
Tb       0.00000000       0.00000000       2.82545455       0.00000000       0.00000000       1.02754354
2
Properties=species:S:1:pos:R:3:forces:R:3 energy=-2.307893726623889 pbc="F F F"
Tb       0.00000000       0.00000000       0.00000000       0.00000000       0.00000000      -0.80386060
Tb       0.00000000       0.00000000       2.88424242       0.00000000       0.00000000       0.80386060
2
Properties=species:S:1:pos:R:3:forces:R:3 energy=-2.3483682559203403 pbc="F F F"
Tb       0.00000000       0.00000000       0.00000000       0.00000000       0.00000000      -0.57224125
Tb       0.00000000       0.00000000       2.94303030       0.00000000       0.00000000       0.57224125
2
Properties=species:S:1:pos:R:3:forces:R:3 energy=-2.375138406156324 pbc="F F F"
Tb       0.00000000       0.00000000       0.00000000       0.00000000       0.00000000      -0.33874410
Tb       0.00000000       0.00000000       3.00181818       0.00000000       0.00000000       0.33874410
2
Properties=species:S:1:pos:R:3:forces:R:3 energy=-2.3883088924290834 pbc="F F F"
Tb       0.00000000       0.00000000       0.00000000       0.00000000       0.00000000      -0.11099297
Tb       0.00000000       0.00000000       3.06060606       0.00000000       0.00000000       0.11099297
2
Properties=species:S:1:pos:R:3:forces:R:3 energy=-2.3884657335906256 pbc="F F F"
Tb       0.00000000       0.00000000       0.00000000       0.00000000       0.00000000       0.10268087
Tb       0.00000000       0.00000000       3.11939394       0.00000000       0.00000000      -0.10268087
2
Properties=species:S:1:pos:R:3:forces:R:3 energy=-2.3766558726269 pbc="F F F"
Tb       0.00000000       0.00000000       0.00000000       0.00000000       0.00000000       0.29503900
Tb       0.00000000       0.00000000       3.17818182       0.00000000       0.00000000      -0.29503900
2
Properties=species:S:1:pos:R:3:forces:R:3 energy=-2.354284382572243 pbc="F F F"
Tb       0.00000000       0.00000000       0.00000000       0.00000000       0.00000000       0.46155486
Tb       0.00000000       0.00000000       3.23696970       0.00000000       0.00000000      -0.46155486
2
Properties=species:S:1:pos:R:3:forces:R:3 energy=-2.32292159621427 pbc="F F F"
Tb       0.00000000       0.00000000       0.00000000       0.00000000       0.00000000       0.60096145
Tb       0.00000000       0.00000000       3.29575758       0.00000000       0.00000000      -0.60096145
2
Properties=species:S:1:pos:R:3:forces:R:3 energy=-2.284134419781469 pbc="F F F"
Tb       0.00000000       0.00000000       0.00000000       0.00000000       0.00000000       0.71446317
Tb       0.00000000       0.00000000       3.35454545       0.00000000       0.00000000      -0.71446317
2
Properties=species:S:1:pos:R:3:forces:R:3 energy=-2.2393759451410773 pbc="F F F"
Tb       0.00000000       0.00000000       0.00000000       0.00000000       0.00000000       0.80458361
Tb       0.00000000       0.00000000       3.41333333       0.00000000       0.00000000      -0.80458361
2
Properties=species:S:1:pos:R:3:forces:R:3 energy=-2.189936084481916 pbc="F F F"
Tb       0.00000000       0.00000000       0.00000000       0.00000000       0.00000000       0.87421030
Tb       0.00000000       0.00000000       3.47212121       0.00000000       0.00000000      -0.87421030
2
Properties=species:S:1:pos:R:3:forces:R:3 energy=-2.1369367639289467 pbc="F F F"
Tb       0.00000000       0.00000000       0.00000000       0.00000000       0.00000000       0.92615801
Tb       0.00000000       0.00000000       3.53090909       0.00000000       0.00000000      -0.92615801
2
Properties=species:S:1:pos:R:3:forces:R:3 energy=-2.0813382871530752 pbc="F F F"
Tb       0.00000000       0.00000000       0.00000000       0.00000000       0.00000000       0.96301240
Tb       0.00000000       0.00000000       3.58969697       0.00000000       0.00000000      -0.96301240
2
Properties=species:S:1:pos:R:3:forces:R:3 energy=-2.0239599764172276 pbc="F F F"
Tb       0.00000000       0.00000000       0.00000000       0.00000000       0.00000000       0.98706597
Tb       0.00000000       0.00000000       3.64848485       0.00000000       0.00000000      -0.98706597
2
Properties=species:S:1:pos:R:3:forces:R:3 energy=-1.9654961086072835 pbc="F F F"
Tb       0.00000000       0.00000000       0.00000000       0.00000000       0.00000000       1.00023592
Tb       0.00000000       0.00000000       3.70727273       0.00000000       0.00000000      -1.00023592
2
Properties=species:S:1:pos:R:3:forces:R:3 energy=-1.9065389427998443 pbc="F F F"
Tb       0.00000000       0.00000000       0.00000000       0.00000000       0.00000000       1.00407624
Tb       0.00000000       0.00000000       3.76606061       0.00000000       0.00000000      -1.00407624
2
Properties=species:S:1:pos:R:3:forces:R:3 energy=-1.8475988401216377 pbc="F F F"
Tb       0.00000000       0.00000000       0.00000000       0.00000000       0.00000000       0.99988538
Tb       0.00000000       0.00000000       3.82484848       0.00000000       0.00000000      -0.99988538
2
Properties=species:S:1:pos:R:3:forces:R:3 energy=-1.7891096229998553 pbc="F F F"
Tb       0.00000000       0.00000000       0.00000000       0.00000000       0.00000000       0.98888481
Tb       0.00000000       0.00000000       3.88363636       0.00000000       0.00000000      -0.98888481
2
Properties=species:S:1:pos:R:3:forces:R:3 energy=-1.7314385824068312 pbc="F F F"
Tb       0.00000000       0.00000000       0.00000000       0.00000000       0.00000000       0.97232717
Tb       0.00000000       0.00000000       3.94242424       0.00000000       0.00000000      -0.97232717
2
Properties=species:S:1:pos:R:3:forces:R:3 energy=-1.6748721917522285 pbc="F F F"
Tb       0.00000000       0.00000000       0.00000000       0.00000000       0.00000000       0.95150775
Tb       0.00000000       0.00000000       4.00121212       0.00000000       0.00000000      -0.95150775
2
Properties=species:S:1:pos:R:3:forces:R:3 energy=-1.6196239061720137 pbc="F F F"
Tb       0.00000000       0.00000000       0.00000000       0.00000000       0.00000000       0.92765534
Tb       0.00000000       0.00000000       4.06000000       0.00000000       0.00000000      -0.92765534
2
Properties=species:S:1:pos:R:3:forces:R:3 energy=-1.565840204188359 pbc="F F F"
Tb       0.00000000       0.00000000       0.00000000       0.00000000       0.00000000       0.90183163
Tb       0.00000000       0.00000000       4.11878788       0.00000000       0.00000000      -0.90183163
2
Properties=species:S:1:pos:R:3:forces:R:3 energy=-1.51361261634455 pbc="F F F"
Tb       0.00000000       0.00000000       0.00000000       0.00000000       0.00000000       0.87483990
Tb       0.00000000       0.00000000       4.17757576       0.00000000       0.00000000      -0.87483990
2
Properties=species:S:1:pos:R:3:forces:R:3 energy=-1.4629922877452441 pbc="F F F"
Tb       0.00000000       0.00000000       0.00000000       0.00000000       0.00000000       0.84722716
Tb       0.00000000       0.00000000       4.23636364       0.00000000       0.00000000      -0.84722716
2
Properties=species:S:1:pos:R:3:forces:R:3 energy=-1.4140041132767722 pbc="F F F"
Tb       0.00000000       0.00000000       0.00000000       0.00000000       0.00000000       0.81931543
Tb       0.00000000       0.00000000       4.29515152       0.00000000       0.00000000      -0.81931543
2
Properties=species:S:1:pos:R:3:forces:R:3 energy=-1.3666639809405177 pbc="F F F"
Tb       0.00000000       0.00000000       0.00000000       0.00000000       0.00000000       0.79126453
Tb       0.00000000       0.00000000       4.35393939       0.00000000       0.00000000      -0.79126453
2
Properties=species:S:1:pos:R:3:forces:R:3 energy=-1.320974140529605 pbc="F F F"
Tb       0.00000000       0.00000000       0.00000000       0.00000000       0.00000000       0.76310664
Tb       0.00000000       0.00000000       4.41272727       0.00000000       0.00000000      -0.76310664
2
Properties=species:S:1:pos:R:3:forces:R:3 energy=-1.2769425852258944 pbc="F F F"
Tb       0.00000000       0.00000000       0.00000000       0.00000000       0.00000000       0.73483914
Tb       0.00000000       0.00000000       4.47151515       0.00000000       0.00000000      -0.73483914
2
Properties=species:S:1:pos:R:3:forces:R:3 energy=-1.2345765025926523 pbc="F F F"
Tb       0.00000000       0.00000000       0.00000000       0.00000000       0.00000000       0.70644081
Tb       0.00000000       0.00000000       4.53030303       0.00000000       0.00000000      -0.70644081
2
Properties=species:S:1:pos:R:3:forces:R:3 energy=-1.1938850785767023 pbc="F F F"
Tb       0.00000000       0.00000000       0.00000000       0.00000000       0.00000000       0.67791760
Tb       0.00000000       0.00000000       4.58909091       0.00000000       0.00000000      -0.67791760
2
Properties=species:S:1:pos:R:3:forces:R:3 energy=-1.154872746928431 pbc="F F F"
Tb       0.00000000       0.00000000       0.00000000       0.00000000       0.00000000       0.64931190
Tb       0.00000000       0.00000000       4.64787879       0.00000000       0.00000000      -0.64931190
2
Properties=species:S:1:pos:R:3:forces:R:3 energy=-1.1175415745555306 pbc="F F F"
Tb       0.00000000       0.00000000       0.00000000       0.00000000       0.00000000       0.62067890
Tb       0.00000000       0.00000000       4.70666667       0.00000000       0.00000000      -0.62067890
2
Properties=species:S:1:pos:R:3:forces:R:3 energy=-1.081894523355375 pbc="F F F"
Tb       0.00000000       0.00000000       0.00000000       0.00000000       0.00000000       0.59208959
Tb       0.00000000       0.00000000       4.76545455       0.00000000       0.00000000      -0.59208959
2
Properties=species:S:1:pos:R:3:forces:R:3 energy=-1.0479241924407539 pbc="F F F"
Tb       0.00000000       0.00000000       0.00000000       0.00000000       0.00000000       0.56358862
Tb       0.00000000       0.00000000       4.82424242       0.00000000       0.00000000      -0.56358862
2
Properties=species:S:1:pos:R:3:forces:R:3 energy=-1.0156283306026486 pbc="F F F"
Tb       0.00000000       0.00000000       0.00000000       0.00000000       0.00000000       0.53527874
Tb       0.00000000       0.00000000       4.88303030       0.00000000       0.00000000      -0.53527874
2
Properties=species:S:1:pos:R:3:forces:R:3 energy=-0.9849808215195155 pbc="F F F"
Tb       0.00000000       0.00000000       0.00000000       0.00000000       0.00000000       0.50739789
Tb       0.00000000       0.00000000       4.94181818       0.00000000       0.00000000      -0.50739789
2
Properties=species:S:1:pos:R:3:forces:R:3 energy=-0.9559499760475874 pbc="F F F"
Tb       0.00000000       0.00000000       0.00000000       0.00000000       0.00000000       0.48041859
Tb       0.00000000       0.00000000       5.00060606       0.00000000       0.00000000      -0.48041859
2
Properties=species:S:1:pos:R:3:forces:R:3 energy=-0.9284624725787366 pbc="F F F"
Tb       0.00000000       0.00000000       0.00000000       0.00000000       0.00000000       0.45505112
Tb       0.00000000       0.00000000       5.05939394       0.00000000       0.00000000      -0.45505112
2
Properties=species:S:1:pos:R:3:forces:R:3 energy=-0.9023997910971729 pbc="F F F"
Tb       0.00000000       0.00000000       0.00000000       0.00000000       0.00000000       0.43207282
Tb       0.00000000       0.00000000       5.11818182       0.00000000       0.00000000      -0.43207282
2
Properties=species:S:1:pos:R:3:forces:R:3 energy=-0.8776081936656506 pbc="F F F"
Tb       0.00000000       0.00000000       0.00000000       0.00000000       0.00000000       0.41186109
Tb       0.00000000       0.00000000       5.17696970       0.00000000       0.00000000      -0.41186109
2
Properties=species:S:1:pos:R:3:forces:R:3 energy=-0.8539384415417152 pbc="F F F"
Tb       0.00000000       0.00000000       0.00000000       0.00000000       0.00000000       0.39358667
Tb       0.00000000       0.00000000       5.23575758       0.00000000       0.00000000      -0.39358667
2
Properties=species:S:1:pos:R:3:forces:R:3 energy=-0.8313498343772122 pbc="F F F"
Tb       0.00000000       0.00000000       0.00000000       0.00000000       0.00000000       0.37442610
Tb       0.00000000       0.00000000       5.29454545       0.00000000       0.00000000      -0.37442610
2
Properties=species:S:1:pos:R:3:forces:R:3 energy=-0.8100067242253612 pbc="F F F"
Tb       0.00000000       0.00000000       0.00000000       0.00000000       0.00000000       0.35072154
Tb       0.00000000       0.00000000       5.35333333       0.00000000       0.00000000      -0.35072154
2
Properties=species:S:1:pos:R:3:forces:R:3 energy=-0.7901665083257804 pbc="F F F"
Tb       0.00000000       0.00000000       0.00000000       0.00000000       0.00000000       0.32462418
Tb       0.00000000       0.00000000       5.41212121       0.00000000       0.00000000      -0.32462418
2
Properties=species:S:1:pos:R:3:forces:R:3 energy=-0.7716607110670717 pbc="F F F"
Tb       0.00000000       0.00000000       0.00000000       0.00000000       0.00000000       0.30716699
Tb       0.00000000       0.00000000       5.47090909       0.00000000       0.00000000      -0.30716699
2
Properties=species:S:1:pos:R:3:forces:R:3 energy=-0.7538978159153951 pbc="F F F"
Tb       0.00000000       0.00000000       0.00000000       0.00000000       0.00000000       0.29657465
Tb       0.00000000       0.00000000       5.52969697       0.00000000       0.00000000      -0.29657465
2
Properties=species:S:1:pos:R:3:forces:R:3 energy=-0.7370577971806616 pbc="F F F"
Tb       0.00000000       0.00000000       0.00000000       0.00000000       0.00000000       0.27335748
Tb       0.00000000       0.00000000       5.58848485       0.00000000       0.00000000      -0.27335748
2
Properties=species:S:1:pos:R:3:forces:R:3 energy=-0.7219946269925659 pbc="F F F"
Tb       0.00000000       0.00000000       0.00000000       0.00000000       0.00000000       0.23893180
Tb       0.00000000       0.00000000       5.64727273       0.00000000       0.00000000      -0.23893180
2
Properties=species:S:1:pos:R:3:forces:R:3 energy=-0.7086798067882198 pbc="F F F"
Tb       0.00000000       0.00000000       0.00000000       0.00000000       0.00000000       0.21926650
Tb       0.00000000       0.00000000       5.70606061       0.00000000       0.00000000      -0.21926650
2
Properties=species:S:1:pos:R:3:forces:R:3 energy=-0.695529123929924 pbc="F F F"
Tb       0.00000000       0.00000000       0.00000000       0.00000000       0.00000000       0.23071095
Tb       0.00000000       0.00000000       5.76484848       0.00000000       0.00000000      -0.23071095
2
Properties=species:S:1:pos:R:3:forces:R:3 energy=-0.68188727132263 pbc="F F F"
Tb       0.00000000       0.00000000       0.00000000       0.00000000       0.00000000       0.22491837
Tb       0.00000000       0.00000000       5.82363636       0.00000000       0.00000000      -0.22491837
2
Properties=species:S:1:pos:R:3:forces:R:3 energy=-0.6704467271079554 pbc="F F F"
Tb       0.00000000       0.00000000       0.00000000       0.00000000       0.00000000       0.15587360
Tb       0.00000000       0.00000000       5.88242424       0.00000000       0.00000000      -0.15587360
2
Properties=species:S:1:pos:R:3:forces:R:3 energy=-0.6638965753785294 pbc="F F F"
Tb       0.00000000       0.00000000       0.00000000       0.00000000       0.00000000       0.06971776
Tb       0.00000000       0.00000000       5.94121212       0.00000000       0.00000000      -0.06971776
2
Properties=species:S:1:pos:R:3:forces:R:3 energy=-0.6612280055543273 pbc="F F F"
Tb       0.00000000       0.00000000       0.00000000       0.00000000       0.00000000       0.03298599
Tb       0.00000000       0.00000000       6.00000000       0.00000000       0.00000000      -0.03298599
