2
Properties=species:S:1:pos:R:3:forces:R:3 energy=7516.534329081637 pbc="F F F"
Tc       0.00000000       0.00000000       0.00000000       0.00000000       0.00000000 -114827.59375000
Tc       0.00000000       0.00000000       0.18000000       0.00000000       0.00000000  114827.59375000
2
Properties=species:S:1:pos:R:3:forces:R:3 energy=3413.9603544722627 pbc="F F F"
Tc       0.00000000       0.00000000       0.00000000       0.00000000       0.00000000  -40051.71484375
Tc       0.00000000       0.00000000       0.23878788       0.00000000       0.00000000   40051.71484375
2
Properties=species:S:1:pos:R:3:forces:R:3 energy=1871.7303740035125 pbc="F F F"
Tc       0.00000000       0.00000000       0.00000000       0.00000000       0.00000000  -16402.37695312
Tc       0.00000000       0.00000000       0.29757576       0.00000000       0.00000000   16402.37695312
2
Properties=species:S:1:pos:R:3:forces:R:3 energy=1213.2884794785982 pbc="F F F"
Tc       0.00000000       0.00000000       0.00000000       0.00000000       0.00000000   -7320.89550781
Tc       0.00000000       0.00000000       0.35636364       0.00000000       0.00000000    7320.89550781
2
Properties=species:S:1:pos:R:3:forces:R:3 energy=912.8454863208714 pbc="F F F"
Tc       0.00000000       0.00000000       0.00000000       0.00000000       0.00000000   -3408.83178711
Tc       0.00000000       0.00000000       0.41515152       0.00000000       0.00000000    3408.83178711
2
Properties=species:S:1:pos:R:3:forces:R:3 energy=773.0754668149639 pbc="F F F"
Tc       0.00000000       0.00000000       0.00000000       0.00000000       0.00000000   -1568.54858398
Tc       0.00000000       0.00000000       0.47393939       0.00000000       0.00000000    1568.54858398
2
Properties=species:S:1:pos:R:3:forces:R:3 energy=709.4619414623528 pbc="F F F"
Tc       0.00000000       0.00000000       0.00000000       0.00000000       0.00000000    -716.06658936
Tc       0.00000000       0.00000000       0.53272727       0.00000000       0.00000000     716.06658936
2
Properties=species:S:1:pos:R:3:forces:R:3 energy=677.260159311818 pbc="F F F"
Tc       0.00000000       0.00000000       0.00000000       0.00000000       0.00000000    -464.07809448
Tc       0.00000000       0.00000000       0.59151515       0.00000000       0.00000000     464.07809448
2
Properties=species:S:1:pos:R:3:forces:R:3 energy=646.0614289507739 pbc="F F F"
Tc       0.00000000       0.00000000       0.00000000       0.00000000       0.00000000    -662.87316895
Tc       0.00000000       0.00000000       0.65030303       0.00000000       0.00000000     662.87316895
2
Properties=species:S:1:pos:R:3:forces:R:3 energy=593.2812167321639 pbc="F F F"
Tc       0.00000000       0.00000000       0.00000000       0.00000000       0.00000000   -1165.11645508
Tc       0.00000000       0.00000000       0.70909091       0.00000000       0.00000000    1165.11645508
2
Properties=species:S:1:pos:R:3:forces:R:3 energy=508.2514013307685 pbc="F F F"
Tc       0.00000000       0.00000000       0.00000000       0.00000000       0.00000000   -1704.94946289
Tc       0.00000000       0.00000000       0.76787879       0.00000000       0.00000000    1704.94946289
2
Properties=species:S:1:pos:R:3:forces:R:3 energy=400.4898355678047 pbc="F F F"
Tc       0.00000000       0.00000000       0.00000000       0.00000000       0.00000000   -1871.24792480
Tc       0.00000000       0.00000000       0.82666667       0.00000000       0.00000000    1871.24792480
2
Properties=species:S:1:pos:R:3:forces:R:3 energy=300.7165817561527 pbc="F F F"
Tc       0.00000000       0.00000000       0.00000000       0.00000000       0.00000000   -1507.70532227
Tc       0.00000000       0.00000000       0.88545455       0.00000000       0.00000000    1507.70532227
2
Properties=species:S:1:pos:R:3:forces:R:3 energy=220.93655327024018 pbc="F F F"
Tc       0.00000000       0.00000000       0.00000000       0.00000000       0.00000000   -1226.42126465
Tc       0.00000000       0.00000000       0.94424242       0.00000000       0.00000000    1226.42126465
2
Properties=species:S:1:pos:R:3:forces:R:3 energy=156.2233891084461 pbc="F F F"
Tc       0.00000000       0.00000000       0.00000000       0.00000000       0.00000000    -955.44940186
Tc       0.00000000       0.00000000       1.00303030       0.00000000       0.00000000     955.44940186
2
Properties=species:S:1:pos:R:3:forces:R:3 energy=110.07193186975942 pbc="F F F"
Tc       0.00000000       0.00000000       0.00000000       0.00000000       0.00000000    -627.40515137
Tc       0.00000000       0.00000000       1.06181818       0.00000000       0.00000000     627.40515137
2
Properties=species:S:1:pos:R:3:forces:R:3 energy=79.42615903051443 pbc="F F F"
Tc       0.00000000       0.00000000       0.00000000       0.00000000       0.00000000    -439.36645508
Tc       0.00000000       0.00000000       1.12060606       0.00000000       0.00000000     439.36645508
2
Properties=species:S:1:pos:R:3:forces:R:3 energy=56.72919738955515 pbc="F F F"
Tc       0.00000000       0.00000000       0.00000000       0.00000000       0.00000000    -338.21578979
Tc       0.00000000       0.00000000       1.17939394       0.00000000       0.00000000     338.21578979
2
Properties=species:S:1:pos:R:3:forces:R:3 energy=39.334978513267714 pbc="F F F"
Tc       0.00000000       0.00000000       0.00000000       0.00000000       0.00000000    -256.21307373
Tc       0.00000000       0.00000000       1.23818182       0.00000000       0.00000000     256.21307373
2
Properties=species:S:1:pos:R:3:forces:R:3 energy=26.21798608804734 pbc="F F F"
Tc       0.00000000       0.00000000       0.00000000       0.00000000       0.00000000    -193.53472900
Tc       0.00000000       0.00000000       1.29696970       0.00000000       0.00000000     193.53472900
2
Properties=species:S:1:pos:R:3:forces:R:3 energy=16.2386996524861 pbc="F F F"
Tc       0.00000000       0.00000000       0.00000000       0.00000000       0.00000000    -148.06149292
Tc       0.00000000       0.00000000       1.35575758       0.00000000       0.00000000     148.06149292
2
Properties=species:S:1:pos:R:3:forces:R:3 energy=8.620250646154988 pbc="F F F"
Tc       0.00000000       0.00000000       0.00000000       0.00000000       0.00000000    -112.55908203
Tc       0.00000000       0.00000000       1.41454545       0.00000000       0.00000000     112.55908203
2
Properties=species:S:1:pos:R:3:forces:R:3 energy=2.8412131216130683 pbc="F F F"
Tc       0.00000000       0.00000000       0.00000000       0.00000000       0.00000000     -85.31177521
Tc       0.00000000       0.00000000       1.47333333       0.00000000       0.00000000      85.31177521
2
Properties=species:S:1:pos:R:3:forces:R:3 energy=-1.534985626586248 pbc="F F F"
Tc       0.00000000       0.00000000       0.00000000       0.00000000       0.00000000     -64.43595886
Tc       0.00000000       0.00000000       1.53212121       0.00000000       0.00000000      64.43595886
2
Properties=species:S:1:pos:R:3:forces:R:3 energy=-4.820501431384528 pbc="F F F"
Tc       0.00000000       0.00000000       0.00000000       0.00000000       0.00000000     -47.96191788
Tc       0.00000000       0.00000000       1.59090909       0.00000000       0.00000000      47.96191788
2
Properties=species:S:1:pos:R:3:forces:R:3 energy=-7.2389161613974125 pbc="F F F"
Tc       0.00000000       0.00000000       0.00000000       0.00000000       0.00000000     -34.81130219
Tc       0.00000000       0.00000000       1.64969697       0.00000000       0.00000000      34.81130219
2
Properties=species:S:1:pos:R:3:forces:R:3 energy=-8.967897009934584 pbc="F F F"
Tc       0.00000000       0.00000000       0.00000000       0.00000000       0.00000000     -24.44221306
Tc       0.00000000       0.00000000       1.70848485       0.00000000       0.00000000      24.44221306
2
Properties=species:S:1:pos:R:3:forces:R:3 energy=-10.159215047232877 pbc="F F F"
Tc       0.00000000       0.00000000       0.00000000       0.00000000       0.00000000     -16.43843460
Tc       0.00000000       0.00000000       1.76727273       0.00000000       0.00000000      16.43843460
2
Properties=species:S:1:pos:R:3:forces:R:3 energy=-10.936263428767647 pbc="F F F"
Tc       0.00000000       0.00000000       0.00000000       0.00000000       0.00000000     -10.25435257
Tc       0.00000000       0.00000000       1.82606061       0.00000000       0.00000000      10.25435257
2
Properties=species:S:1:pos:R:3:forces:R:3 energy=-11.390953121996429 pbc="F F F"
Tc       0.00000000       0.00000000       0.00000000       0.00000000       0.00000000      -5.40876675
Tc       0.00000000       0.00000000       1.88484848       0.00000000       0.00000000       5.40876675
2
Properties=species:S:1:pos:R:3:forces:R:3 energy=-11.59304915450516 pbc="F F F"
Tc       0.00000000       0.00000000       0.00000000       0.00000000       0.00000000      -1.63213527
Tc       0.00000000       0.00000000       1.94363636       0.00000000       0.00000000       1.63213527
2
Properties=species:S:1:pos:R:3:forces:R:3 energy=-11.601438504139722 pbc="F F F"
Tc       0.00000000       0.00000000       0.00000000       0.00000000       0.00000000       1.19518268
Tc       0.00000000       0.00000000       2.00242424       0.00000000       0.00000000      -1.19518268
2
Properties=species:S:1:pos:R:3:forces:R:3 energy=-11.469468149944014 pbc="F F F"
Tc       0.00000000       0.00000000       0.00000000       0.00000000       0.00000000       3.15894699
Tc       0.00000000       0.00000000       2.06121212       0.00000000       0.00000000      -3.15894699
2
Properties=species:S:1:pos:R:3:forces:R:3 energy=-11.244765524635017 pbc="F F F"
Tc       0.00000000       0.00000000       0.00000000       0.00000000       0.00000000       4.37119341
Tc       0.00000000       0.00000000       2.12000000       0.00000000       0.00000000      -4.37119341
2
Properties=species:S:1:pos:R:3:forces:R:3 energy=-10.96762674465961 pbc="F F F"
Tc       0.00000000       0.00000000       0.00000000       0.00000000       0.00000000       4.96570969
Tc       0.00000000       0.00000000       2.17878788       0.00000000       0.00000000      -4.96570969
2
Properties=species:S:1:pos:R:3:forces:R:3 energy=-10.670357101399382 pbc="F F F"
Tc       0.00000000       0.00000000       0.00000000       0.00000000       0.00000000       5.07854033
Tc       0.00000000       0.00000000       2.23757576       0.00000000       0.00000000      -5.07854033
2
Properties=species:S:1:pos:R:3:forces:R:3 energy=-10.377337320545175 pbc="F F F"
Tc       0.00000000       0.00000000       0.00000000       0.00000000       0.00000000       4.84334135
Tc       0.00000000       0.00000000       2.29636364       0.00000000       0.00000000      -4.84334135
2
Properties=species:S:1:pos:R:3:forces:R:3 energy=-10.105053939651619 pbc="F F F"
Tc       0.00000000       0.00000000       0.00000000       0.00000000       0.00000000       4.39597273
Tc       0.00000000       0.00000000       2.35515152       0.00000000       0.00000000      -4.39597273
2
Properties=species:S:1:pos:R:3:forces:R:3 energy=-9.86202758820731 pbc="F F F"
Tc       0.00000000       0.00000000       0.00000000       0.00000000       0.00000000       3.86868930
Tc       0.00000000       0.00000000       2.41393939       0.00000000       0.00000000      -3.86868930
2
Properties=species:S:1:pos:R:3:forces:R:3 energy=-9.649626862718447 pbc="F F F"
Tc       0.00000000       0.00000000       0.00000000       0.00000000       0.00000000       3.36848617
Tc       0.00000000       0.00000000       2.47272727       0.00000000       0.00000000      -3.36848617
2
Properties=species:S:1:pos:R:3:forces:R:3 energy=-9.464218231227152 pbc="F F F"
Tc       0.00000000       0.00000000       0.00000000       0.00000000       0.00000000       2.95623422
Tc       0.00000000       0.00000000       2.53151515       0.00000000       0.00000000      -2.95623422
2
Properties=species:S:1:pos:R:3:forces:R:3 energy=-9.300045900966062 pbc="F F F"
Tc       0.00000000       0.00000000       0.00000000       0.00000000       0.00000000       2.64499760
Tc       0.00000000       0.00000000       2.59030303       0.00000000       0.00000000      -2.64499760
2
Properties=species:S:1:pos:R:3:forces:R:3 energy=-9.151592090433788 pbc="F F F"
Tc       0.00000000       0.00000000       0.00000000       0.00000000       0.00000000       2.41716433
Tc       0.00000000       0.00000000       2.64909091       0.00000000       0.00000000      -2.41716433
2
Properties=species:S:1:pos:R:3:forces:R:3 energy=-9.014735462755409 pbc="F F F"
Tc       0.00000000       0.00000000       0.00000000       0.00000000       0.00000000       2.24633908
Tc       0.00000000       0.00000000       2.70787879       0.00000000       0.00000000      -2.24633908
2
Properties=species:S:1:pos:R:3:forces:R:3 energy=-8.886702593674105 pbc="F F F"
Tc       0.00000000       0.00000000       0.00000000       0.00000000       0.00000000       2.11595225
Tc       0.00000000       0.00000000       2.76666667       0.00000000       0.00000000      -2.11595225
2
Properties=species:S:1:pos:R:3:forces:R:3 energy=-8.764984158833027 pbc="F F F"
Tc       0.00000000       0.00000000       0.00000000       0.00000000       0.00000000       2.03549981
Tc       0.00000000       0.00000000       2.82545455       0.00000000       0.00000000      -2.03549981
2
Properties=species:S:1:pos:R:3:forces:R:3 energy=-8.646007832941622 pbc="F F F"
Tc       0.00000000       0.00000000       0.00000000       0.00000000       0.00000000       2.02253532
Tc       0.00000000       0.00000000       2.88424242       0.00000000       0.00000000      -2.02253532
2
Properties=species:S:1:pos:R:3:forces:R:3 energy=-8.526534073294227 pbc="F F F"
Tc       0.00000000       0.00000000       0.00000000       0.00000000       0.00000000       2.04174685
Tc       0.00000000       0.00000000       2.94303030       0.00000000       0.00000000      -2.04174685
2
Properties=species:S:1:pos:R:3:forces:R:3 energy=-8.406487392623687 pbc="F F F"
Tc       0.00000000       0.00000000       0.00000000       0.00000000       0.00000000       2.03528523
Tc       0.00000000       0.00000000       3.00181818       0.00000000       0.00000000      -2.03528523
2
Properties=species:S:1:pos:R:3:forces:R:3 energy=-8.288103217398046 pbc="F F F"
Tc       0.00000000       0.00000000       0.00000000       0.00000000       0.00000000       1.98528314
Tc       0.00000000       0.00000000       3.06060606       0.00000000       0.00000000      -1.98528314
2
Properties=species:S:1:pos:R:3:forces:R:3 energy=-8.173776383068368 pbc="F F F"
Tc       0.00000000       0.00000000       0.00000000       0.00000000       0.00000000       1.89918542
Tc       0.00000000       0.00000000       3.11939394       0.00000000       0.00000000      -1.89918542
2
Properties=species:S:1:pos:R:3:forces:R:3 energy=-8.065275871468902 pbc="F F F"
Tc       0.00000000       0.00000000       0.00000000       0.00000000       0.00000000       1.78905725
Tc       0.00000000       0.00000000       3.17818182       0.00000000       0.00000000      -1.78905725
2
Properties=species:S:1:pos:R:3:forces:R:3 energy=-7.963656630344251 pbc="F F F"
Tc       0.00000000       0.00000000       0.00000000       0.00000000       0.00000000       1.66710317
Tc       0.00000000       0.00000000       3.23696970       0.00000000       0.00000000      -1.66710317
2
Properties=species:S:1:pos:R:3:forces:R:3 energy=-7.869280959628172 pbc="F F F"
Tc       0.00000000       0.00000000       0.00000000       0.00000000       0.00000000       1.54422712
Tc       0.00000000       0.00000000       3.29575758       0.00000000       0.00000000      -1.54422712
2
Properties=species:S:1:pos:R:3:forces:R:3 energy=-7.781955290891222 pbc="F F F"
Tc       0.00000000       0.00000000       0.00000000       0.00000000       0.00000000       1.42824697
Tc       0.00000000       0.00000000       3.35454545       0.00000000       0.00000000      -1.42824697
2
Properties=species:S:1:pos:R:3:forces:R:3 energy=-7.701144830942077 pbc="F F F"
Tc       0.00000000       0.00000000       0.00000000       0.00000000       0.00000000       1.32280278
Tc       0.00000000       0.00000000       3.41333333       0.00000000       0.00000000      -1.32280278
2
Properties=species:S:1:pos:R:3:forces:R:3 energy=-7.626222428203773 pbc="F F F"
Tc       0.00000000       0.00000000       0.00000000       0.00000000       0.00000000       1.22760248
Tc       0.00000000       0.00000000       3.47212121       0.00000000       0.00000000      -1.22760248
2
Properties=species:S:1:pos:R:3:forces:R:3 energy=-7.556663772862085 pbc="F F F"
Tc       0.00000000       0.00000000       0.00000000       0.00000000       0.00000000       1.13978887
Tc       0.00000000       0.00000000       3.53090909       0.00000000       0.00000000      -1.13978887
2
Properties=species:S:1:pos:R:3:forces:R:3 energy=-7.4921390856564 pbc="F F F"
Tc       0.00000000       0.00000000       0.00000000       0.00000000       0.00000000       1.05568385
Tc       0.00000000       0.00000000       3.58969697       0.00000000       0.00000000      -1.05568385
2
Properties=species:S:1:pos:R:3:forces:R:3 energy=-7.432527376981121 pbc="F F F"
Tc       0.00000000       0.00000000       0.00000000       0.00000000       0.00000000       0.97228861
Tc       0.00000000       0.00000000       3.64848485       0.00000000       0.00000000      -0.97228861
2
Properties=species:S:1:pos:R:3:forces:R:3 energy=-7.377838994861582 pbc="F F F"
Tc       0.00000000       0.00000000       0.00000000       0.00000000       0.00000000       0.88808173
Tc       0.00000000       0.00000000       3.70727273       0.00000000       0.00000000      -0.88808173
2
Properties=species:S:1:pos:R:3:forces:R:3 energy=-7.328125285655405 pbc="F F F"
Tc       0.00000000       0.00000000       0.00000000       0.00000000       0.00000000       0.80313408
Tc       0.00000000       0.00000000       3.76606061       0.00000000       0.00000000      -0.80313408
2
Properties=species:S:1:pos:R:3:forces:R:3 energy=-7.283399808215447 pbc="F F F"
Tc       0.00000000       0.00000000       0.00000000       0.00000000       0.00000000       0.71872479
Tc       0.00000000       0.00000000       3.82484848       0.00000000       0.00000000      -0.71872479
2
Properties=species:S:1:pos:R:3:forces:R:3 energy=-7.2435733683308445 pbc="F F F"
Tc       0.00000000       0.00000000       0.00000000       0.00000000       0.00000000       0.63673162
Tc       0.00000000       0.00000000       3.88363636       0.00000000       0.00000000      -0.63673162
2
Properties=species:S:1:pos:R:3:forces:R:3 energy=-7.2084491996702855 pbc="F F F"
Tc       0.00000000       0.00000000       0.00000000       0.00000000       0.00000000       0.55909872
Tc       0.00000000       0.00000000       3.94242424       0.00000000       0.00000000      -0.55909872
2
Properties=species:S:1:pos:R:3:forces:R:3 energy=-7.177720573260568 pbc="F F F"
Tc       0.00000000       0.00000000       0.00000000       0.00000000       0.00000000       0.48742777
Tc       0.00000000       0.00000000       4.00121212       0.00000000       0.00000000      -0.48742777
2
Properties=species:S:1:pos:R:3:forces:R:3 energy=-7.151001429106324 pbc="F F F"
Tc       0.00000000       0.00000000       0.00000000       0.00000000       0.00000000       0.42279688
Tc       0.00000000       0.00000000       4.06000000       0.00000000       0.00000000      -0.42279688
2
Properties=species:S:1:pos:R:3:forces:R:3 energy=-7.127861109274838 pbc="F F F"
Tc       0.00000000       0.00000000       0.00000000       0.00000000       0.00000000       0.36574677
Tc       0.00000000       0.00000000       4.11878788       0.00000000       0.00000000      -0.36574677
2
Properties=species:S:1:pos:R:3:forces:R:3 energy=-7.107848682926759 pbc="F F F"
Tc       0.00000000       0.00000000       0.00000000       0.00000000       0.00000000       0.31633046
Tc       0.00000000       0.00000000       4.17757576       0.00000000       0.00000000      -0.31633046
2
Properties=species:S:1:pos:R:3:forces:R:3 energy=-7.090523744326409 pbc="F F F"
Tc       0.00000000       0.00000000       0.00000000       0.00000000       0.00000000       0.27425221
Tc       0.00000000       0.00000000       4.23636364       0.00000000       0.00000000      -0.27425221
2
Properties=species:S:1:pos:R:3:forces:R:3 energy=-7.0754697579465695 pbc="F F F"
Tc       0.00000000       0.00000000       0.00000000       0.00000000       0.00000000       0.23896691
Tc       0.00000000       0.00000000       4.29515152       0.00000000       0.00000000      -0.23896691
2
Properties=species:S:1:pos:R:3:forces:R:3 energy=-7.062307690341097 pbc="F F F"
Tc       0.00000000       0.00000000       0.00000000       0.00000000       0.00000000       0.20978838
Tc       0.00000000       0.00000000       4.35393939       0.00000000       0.00000000      -0.20978838
2
Properties=species:S:1:pos:R:3:forces:R:3 energy=-7.050699590423349 pbc="F F F"
Tc       0.00000000       0.00000000       0.00000000       0.00000000       0.00000000       0.18594323
Tc       0.00000000       0.00000000       4.41272727       0.00000000       0.00000000      -0.18594323
2
Properties=species:S:1:pos:R:3:forces:R:3 energy=-7.0403561618399175 pbc="F F F"
Tc       0.00000000       0.00000000       0.00000000       0.00000000       0.00000000       0.16662291
Tc       0.00000000       0.00000000       4.47151515       0.00000000       0.00000000      -0.16662291
2
Properties=species:S:1:pos:R:3:forces:R:3 energy=-7.031035848974012 pbc="F F F"
Tc       0.00000000       0.00000000       0.00000000       0.00000000       0.00000000       0.15100263
Tc       0.00000000       0.00000000       4.53030303       0.00000000       0.00000000      -0.15100263
2
Properties=species:S:1:pos:R:3:forces:R:3 energy=-7.022545809626711 pbc="F F F"
Tc       0.00000000       0.00000000       0.00000000       0.00000000       0.00000000       0.13826123
Tc       0.00000000       0.00000000       4.58909091       0.00000000       0.00000000      -0.13826123
2
Properties=species:S:1:pos:R:3:forces:R:3 energy=-7.014739207713309 pbc="F F F"
Tc       0.00000000       0.00000000       0.00000000       0.00000000       0.00000000       0.12761715
Tc       0.00000000       0.00000000       4.64787879       0.00000000       0.00000000      -0.12761715
2
Properties=species:S:1:pos:R:3:forces:R:3 energy=-7.007514050512746 pbc="F F F"
Tc       0.00000000       0.00000000       0.00000000       0.00000000       0.00000000       0.11835879
Tc       0.00000000       0.00000000       4.70666667       0.00000000       0.00000000      -0.11835879
2
Properties=species:S:1:pos:R:3:forces:R:3 energy=-7.000807276552368 pbc="F F F"
Tc       0.00000000       0.00000000       0.00000000       0.00000000       0.00000000       0.10990211
Tc       0.00000000       0.00000000       4.76545455       0.00000000       0.00000000      -0.10990211
2
Properties=species:S:1:pos:R:3:forces:R:3 energy=-6.994584252519168 pbc="F F F"
Tc       0.00000000       0.00000000       0.00000000       0.00000000       0.00000000       0.10183939
Tc       0.00000000       0.00000000       4.82424242       0.00000000       0.00000000      -0.10183939
2
Properties=species:S:1:pos:R:3:forces:R:3 energy=-6.988829491606228 pbc="F F F"
Tc       0.00000000       0.00000000       0.00000000       0.00000000       0.00000000       0.09400102
Tc       0.00000000       0.00000000       4.88303030       0.00000000       0.00000000      -0.09400102
2
Properties=species:S:1:pos:R:3:forces:R:3 energy=-6.983526938462476 pbc="F F F"
Tc       0.00000000       0.00000000       0.00000000       0.00000000       0.00000000       0.08646229
Tc       0.00000000       0.00000000       4.94181818       0.00000000       0.00000000      -0.08646229
2
Properties=species:S:1:pos:R:3:forces:R:3 energy=-6.978651430473354 pbc="F F F"
Tc       0.00000000       0.00000000       0.00000000       0.00000000       0.00000000       0.07953364
Tc       0.00000000       0.00000000       5.00060606       0.00000000       0.00000000      -0.07953364
2
Properties=species:S:1:pos:R:3:forces:R:3 energy=-6.974154926504026 pbc="F F F"
Tc       0.00000000       0.00000000       0.00000000       0.00000000       0.00000000       0.07364944
Tc       0.00000000       0.00000000       5.05939394       0.00000000       0.00000000      -0.07364944
2
Properties=species:S:1:pos:R:3:forces:R:3 energy=-6.9699634558070995 pbc="F F F"
Tc       0.00000000       0.00000000       0.00000000       0.00000000       0.00000000       0.06920798
Tc       0.00000000       0.00000000       5.11818182       0.00000000       0.00000000      -0.06920798
2
Properties=species:S:1:pos:R:3:forces:R:3 energy=-6.965986765639568 pbc="F F F"
Tc       0.00000000       0.00000000       0.00000000       0.00000000       0.00000000       0.06634421
Tc       0.00000000       0.00000000       5.17696970       0.00000000       0.00000000      -0.06634421
2
Properties=species:S:1:pos:R:3:forces:R:3 energy=-6.962139463656696 pbc="F F F"
Tc       0.00000000       0.00000000       0.00000000       0.00000000       0.00000000       0.06466442
Tc       0.00000000       0.00000000       5.23575758       0.00000000       0.00000000      -0.06466442
2
Properties=species:S:1:pos:R:3:forces:R:3 energy=-6.9583823411858585 pbc="F F F"
Tc       0.00000000       0.00000000       0.00000000       0.00000000       0.00000000       0.06302748
Tc       0.00000000       0.00000000       5.29454545       0.00000000       0.00000000      -0.06302748
2
Properties=species:S:1:pos:R:3:forces:R:3 energy=-6.9547589011223785 pbc="F F F"
Tc       0.00000000       0.00000000       0.00000000       0.00000000       0.00000000       0.05989811
Tc       0.00000000       0.00000000       5.35333333       0.00000000       0.00000000      -0.05989811
2
Properties=species:S:1:pos:R:3:forces:R:3 energy=-6.95136954853436 pbc="F F F"
Tc       0.00000000       0.00000000       0.00000000       0.00000000       0.00000000       0.05542661
Tc       0.00000000       0.00000000       5.41212121       0.00000000       0.00000000      -0.05542661
2
Properties=species:S:1:pos:R:3:forces:R:3 energy=-6.948190531926749 pbc="F F F"
Tc       0.00000000       0.00000000       0.00000000       0.00000000       0.00000000       0.05354065
Tc       0.00000000       0.00000000       5.47090909       0.00000000       0.00000000      -0.05354065
2
Properties=species:S:1:pos:R:3:forces:R:3 energy=-6.944992499121945 pbc="F F F"
Tc       0.00000000       0.00000000       0.00000000       0.00000000       0.00000000       0.05539163
Tc       0.00000000       0.00000000       5.52969697       0.00000000       0.00000000      -0.05539163
2
Properties=species:S:1:pos:R:3:forces:R:3 energy=-6.941743974355547 pbc="F F F"
Tc       0.00000000       0.00000000       0.00000000       0.00000000       0.00000000       0.05413942
Tc       0.00000000       0.00000000       5.58848485       0.00000000       0.00000000      -0.05413942
2
Properties=species:S:1:pos:R:3:forces:R:3 energy=-6.938723503707556 pbc="F F F"
Tc       0.00000000       0.00000000       0.00000000       0.00000000       0.00000000       0.04833577
Tc       0.00000000       0.00000000       5.64727273       0.00000000       0.00000000      -0.04833577
2
Properties=species:S:1:pos:R:3:forces:R:3 energy=-6.935999926358595 pbc="F F F"
Tc       0.00000000       0.00000000       0.00000000       0.00000000       0.00000000       0.04579743
Tc       0.00000000       0.00000000       5.70606061       0.00000000       0.00000000      -0.04579743
2
Properties=species:S:1:pos:R:3:forces:R:3 energy=-6.933104470600087 pbc="F F F"
Tc       0.00000000       0.00000000       0.00000000       0.00000000       0.00000000       0.05411538
Tc       0.00000000       0.00000000       5.76484848       0.00000000       0.00000000      -0.05411538
2
Properties=species:S:1:pos:R:3:forces:R:3 energy=-6.929682596565163 pbc="F F F"
Tc       0.00000000       0.00000000       0.00000000       0.00000000       0.00000000       0.05986353
Tc       0.00000000       0.00000000       5.82363636       0.00000000       0.00000000      -0.05986353
2
Properties=species:S:1:pos:R:3:forces:R:3 energy=-6.926463916270578 pbc="F F F"
Tc       0.00000000       0.00000000       0.00000000       0.00000000       0.00000000       0.04708458
Tc       0.00000000       0.00000000       5.88242424       0.00000000       0.00000000      -0.04708458
2
Properties=species:S:1:pos:R:3:forces:R:3 energy=-6.924285753077862 pbc="F F F"
Tc       0.00000000       0.00000000       0.00000000       0.00000000       0.00000000       0.02738011
Tc       0.00000000       0.00000000       5.94121212       0.00000000       0.00000000      -0.02738011
2
Properties=species:S:1:pos:R:3:forces:R:3 energy=-6.923024999532464 pbc="F F F"
Tc       0.00000000       0.00000000       0.00000000       0.00000000       0.00000000       0.01818999
Tc       0.00000000       0.00000000       6.00000000       0.00000000       0.00000000      -0.01818999
