2
Properties=species:S:1:pos:R:3:forces:R:3 energy=-681484.3040883363 pbc="F F F"
Th       0.00000000       0.00000000       0.00000000       0.00000000       0.00000000 -300818.59375000
Th       0.00000000       0.00000000       0.18000000       0.00000000       0.00000000  300818.59375000
2
Properties=species:S:1:pos:R:3:forces:R:3 energy=-688792.5540883363 pbc="F F F"
Th       0.00000000       0.00000000       0.00000000       0.00000000       0.00000000   11157.78808594
Th       0.00000000       0.00000000       0.23878788       0.00000000       0.00000000  -11157.78808594
2
Properties=species:S:1:pos:R:3:forces:R:3 energy=-681893.7415883363 pbc="F F F"
Th       0.00000000       0.00000000       0.00000000       0.00000000       0.00000000  223605.43750000
Th       0.00000000       0.00000000       0.29757576       0.00000000       0.00000000 -223605.43750000
2
Properties=species:S:1:pos:R:3:forces:R:3 energy=-661711.1790883363 pbc="F F F"
Th       0.00000000       0.00000000       0.00000000       0.00000000       0.00000000  473848.15625000
Th       0.00000000       0.00000000       0.35636364       0.00000000       0.00000000 -473848.15625000
2
Properties=species:S:1:pos:R:3:forces:R:3 energy=-624761.3665883236 pbc="F F F"
Th       0.00000000       0.00000000       0.00000000       0.00000000       0.00000000  795145.68750000
Th       0.00000000       0.00000000       0.41515152       0.00000000       0.00000000 -795145.68750000
2
Properties=species:S:1:pos:R:3:forces:R:3 energy=-567091.3040883236 pbc="F F F"
Th       0.00000000       0.00000000       0.00000000       0.00000000       0.00000000 1172733.87500000
Th       0.00000000       0.00000000       0.47393939       0.00000000       0.00000000 -1172733.87500000
2
Properties=species:S:1:pos:R:3:forces:R:3 energy=-486927.0540883109 pbc="F F F"
Th       0.00000000       0.00000000       0.00000000       0.00000000       0.00000000 1546286.87500000
Th       0.00000000       0.00000000       0.53272727       0.00000000       0.00000000 -1546286.87500000
2
Properties=species:S:1:pos:R:3:forces:R:3 energy=-387323.4603382856 pbc="F F F"
Th       0.00000000       0.00000000       0.00000000       0.00000000       0.00000000 1815073.37500000
Th       0.00000000       0.00000000       0.59151515       0.00000000       0.00000000 -1815073.37500000
2
Properties=species:S:1:pos:R:3:forces:R:3 energy=-277783.2103382349 pbc="F F F"
Th       0.00000000       0.00000000       0.00000000       0.00000000       0.00000000 1867903.00000000
Th       0.00000000       0.00000000       0.65030303       0.00000000       0.00000000 -1867903.00000000
2
Properties=species:S:1:pos:R:3:forces:R:3 energy=-173226.81971317154 pbc="F F F"
Th       0.00000000       0.00000000       0.00000000       0.00000000       0.00000000 1642805.25000000
Th       0.00000000       0.00000000       0.70909091       0.00000000       0.00000000 -1642805.25000000
2
Properties=species:S:1:pos:R:3:forces:R:3 energy=-89208.07752557017 pbc="F F F"
Th       0.00000000       0.00000000       0.00000000       0.00000000       0.00000000 1188180.25000000
Th       0.00000000       0.00000000       0.76787879       0.00000000       0.00000000 -1188180.25000000
2
Properties=species:S:1:pos:R:3:forces:R:3 energy=-34877.68299416811 pbc="F F F"
Th       0.00000000       0.00000000       0.00000000       0.00000000       0.00000000  665607.56250000
Th       0.00000000       0.00000000       0.82666667       0.00000000       0.00000000 -665607.56250000
2
Properties=species:S:1:pos:R:3:forces:R:3 energy=-8592.228892377529 pbc="F F F"
Th       0.00000000       0.00000000       0.00000000       0.00000000       0.00000000  259509.76562500
Th       0.00000000       0.00000000       0.88545455       0.00000000       0.00000000 -259509.76562500
2
Properties=species:S:1:pos:R:3:forces:R:3 energy=-741.5568339679485 pbc="F F F"
Th       0.00000000       0.00000000       0.00000000       0.00000000       0.00000000   46201.04687500
Th       0.00000000       0.00000000       0.94424242       0.00000000       0.00000000  -46201.04687500
2
Properties=species:S:1:pos:R:3:forces:R:3 energy=342.0380150830165 pbc="F F F"
Th       0.00000000       0.00000000       0.00000000       0.00000000       0.00000000    1619.62536621
Th       0.00000000       0.00000000       1.00303030       0.00000000       0.00000000   -1619.62536621
2
Properties=species:S:1:pos:R:3:forces:R:3 energy=225.40755299406882 pbc="F F F"
Th       0.00000000       0.00000000       0.00000000       0.00000000       0.00000000   -2278.32641602
Th       0.00000000       0.00000000       1.06181818       0.00000000       0.00000000    2278.32641602
2
Properties=species:S:1:pos:R:3:forces:R:3 energy=149.94409854147955 pbc="F F F"
Th       0.00000000       0.00000000       0.00000000       0.00000000       0.00000000    -617.58203125
Th       0.00000000       0.00000000       1.12060606       0.00000000       0.00000000     617.58203125
2
Properties=species:S:1:pos:R:3:forces:R:3 energy=128.93466959819943 pbc="F F F"
Th       0.00000000       0.00000000       0.00000000       0.00000000       0.00000000    -272.25375366
Th       0.00000000       0.00000000       1.17939394       0.00000000       0.00000000     272.25375366
2
Properties=species:S:1:pos:R:3:forces:R:3 energy=111.88852065780875 pbc="F F F"
Th       0.00000000       0.00000000       0.00000000       0.00000000       0.00000000    -283.28378296
Th       0.00000000       0.00000000       1.23818182       0.00000000       0.00000000     283.28378296
2
Properties=species:S:1:pos:R:3:forces:R:3 energy=96.09112085151104 pbc="F F F"
Th       0.00000000       0.00000000       0.00000000       0.00000000       0.00000000    -254.58259583
Th       0.00000000       0.00000000       1.29696970       0.00000000       0.00000000     254.58259583
2
Properties=species:S:1:pos:R:3:forces:R:3 energy=81.88750198094397 pbc="F F F"
Th       0.00000000       0.00000000       0.00000000       0.00000000       0.00000000    -229.00154114
Th       0.00000000       0.00000000       1.35575758       0.00000000       0.00000000     229.00154114
2
Properties=species:S:1:pos:R:3:forces:R:3 energy=69.16889952438294 pbc="F F F"
Th       0.00000000       0.00000000       0.00000000       0.00000000       0.00000000    -203.68452454
Th       0.00000000       0.00000000       1.41454545       0.00000000       0.00000000     203.68452454
2
Properties=species:S:1:pos:R:3:forces:R:3 energy=57.8946297861752 pbc="F F F"
Th       0.00000000       0.00000000       0.00000000       0.00000000       0.00000000    -180.57164001
Th       0.00000000       0.00000000       1.47333333       0.00000000       0.00000000     180.57164001
2
Properties=species:S:1:pos:R:3:forces:R:3 energy=47.850612107829356 pbc="F F F"
Th       0.00000000       0.00000000       0.00000000       0.00000000       0.00000000    -161.75199890
Th       0.00000000       0.00000000       1.53212121       0.00000000       0.00000000     161.75199890
2
Properties=species:S:1:pos:R:3:forces:R:3 energy=38.83595321395867 pbc="F F F"
Th       0.00000000       0.00000000       0.00000000       0.00000000       0.00000000    -144.99829102
Th       0.00000000       0.00000000       1.59090909       0.00000000       0.00000000     144.99829102
2
Properties=species:S:1:pos:R:3:forces:R:3 energy=30.81076679468052 pbc="F F F"
Th       0.00000000       0.00000000       0.00000000       0.00000000       0.00000000    -127.94818878
Th       0.00000000       0.00000000       1.64969697       0.00000000       0.00000000     127.94818878
2
Properties=species:S:1:pos:R:3:forces:R:3 energy=23.789854040112292 pbc="F F F"
Th       0.00000000       0.00000000       0.00000000       0.00000000       0.00000000    -110.99191284
Th       0.00000000       0.00000000       1.70848485       0.00000000       0.00000000     110.99191284
2
Properties=species:S:1:pos:R:3:forces:R:3 energy=17.753784979800844 pbc="F F F"
Th       0.00000000       0.00000000       0.00000000       0.00000000       0.00000000     -94.38494873
Th       0.00000000       0.00000000       1.76727273       0.00000000       0.00000000      94.38494873
2
Properties=species:S:1:pos:R:3:forces:R:3 energy=12.683867850570392 pbc="F F F"
Th       0.00000000       0.00000000       0.00000000       0.00000000       0.00000000     -78.27966309
Th       0.00000000       0.00000000       1.82606061       0.00000000       0.00000000      78.27966309
2
Properties=species:S:1:pos:R:3:forces:R:3 energy=8.514015157725808 pbc="F F F"
Th       0.00000000       0.00000000       0.00000000       0.00000000       0.00000000     -63.97154617
Th       0.00000000       0.00000000       1.88484848       0.00000000       0.00000000      63.97154617
2
Properties=species:S:1:pos:R:3:forces:R:3 energy=5.114849814923135 pbc="F F F"
Th       0.00000000       0.00000000       0.00000000       0.00000000       0.00000000     -52.05685043
Th       0.00000000       0.00000000       1.94363636       0.00000000       0.00000000      52.05685043
2
Properties=species:S:1:pos:R:3:forces:R:3 energy=2.3521787565482986 pbc="F F F"
Th       0.00000000       0.00000000       0.00000000       0.00000000       0.00000000     -42.24242020
Th       0.00000000       0.00000000       2.00242424       0.00000000       0.00000000      42.24242020
2
Properties=species:S:1:pos:R:3:forces:R:3 energy=0.11605820690648681 pbc="F F F"
Th       0.00000000       0.00000000       0.00000000       0.00000000       0.00000000     -34.06865692
Th       0.00000000       0.00000000       2.06121212       0.00000000       0.00000000      34.06865692
2
Properties=species:S:1:pos:R:3:forces:R:3 energy=-1.67753373741772 pbc="F F F"
Th       0.00000000       0.00000000       0.00000000       0.00000000       0.00000000     -27.12788582
Th       0.00000000       0.00000000       2.12000000       0.00000000       0.00000000      27.12788582
2
Properties=species:S:1:pos:R:3:forces:R:3 energy=-3.092201690372068 pbc="F F F"
Th       0.00000000       0.00000000       0.00000000       0.00000000       0.00000000     -21.14575577
Th       0.00000000       0.00000000       2.17878788       0.00000000       0.00000000      21.14575577
2
Properties=species:S:1:pos:R:3:forces:R:3 energy=-4.180007456144392 pbc="F F F"
Th       0.00000000       0.00000000       0.00000000       0.00000000       0.00000000     -15.99343777
Th       0.00000000       0.00000000       2.23757576       0.00000000       0.00000000      15.99343777
2
Properties=species:S:1:pos:R:3:forces:R:3 energy=-4.987407793189986 pbc="F F F"
Th       0.00000000       0.00000000       0.00000000       0.00000000       0.00000000     -11.59518337
Th       0.00000000       0.00000000       2.29636364       0.00000000       0.00000000      11.59518337
2
Properties=species:S:1:pos:R:3:forces:R:3 energy=-5.556916919654965 pbc="F F F"
Th       0.00000000       0.00000000       0.00000000       0.00000000       0.00000000      -7.89182281
Th       0.00000000       0.00000000       2.35515152       0.00000000       0.00000000       7.89182281
2
Properties=species:S:1:pos:R:3:forces:R:3 energy=-5.928095937808249 pbc="F F F"
Th       0.00000000       0.00000000       0.00000000       0.00000000       0.00000000      -4.84161139
Th       0.00000000       0.00000000       2.41393939       0.00000000       0.00000000       4.84161139
2
Properties=species:S:1:pos:R:3:forces:R:3 energy=-6.13825950671002 pbc="F F F"
Th       0.00000000       0.00000000       0.00000000       0.00000000       0.00000000      -2.40799260
Th       0.00000000       0.00000000       2.47272727       0.00000000       0.00000000       2.40799260
2
Properties=species:S:1:pos:R:3:forces:R:3 energy=-6.22254262475645 pbc="F F F"
Th       0.00000000       0.00000000       0.00000000       0.00000000       0.00000000      -0.55223817
Th       0.00000000       0.00000000       2.53151515       0.00000000       0.00000000       0.55223817
2
Properties=species:S:1:pos:R:3:forces:R:3 energy=-6.213625920791417 pbc="F F F"
Th       0.00000000       0.00000000       0.00000000       0.00000000       0.00000000       0.77175802
Th       0.00000000       0.00000000       2.59030303       0.00000000       0.00000000      -0.77175802
2
Properties=species:S:1:pos:R:3:forces:R:3 energy=-6.140883069267641 pbc="F F F"
Th       0.00000000       0.00000000       0.00000000       0.00000000       0.00000000       1.63345087
Th       0.00000000       0.00000000       2.64909091       0.00000000       0.00000000      -1.63345087
2
Properties=species:S:1:pos:R:3:forces:R:3 energy=-6.028711421369679 pbc="F F F"
Th       0.00000000       0.00000000       0.00000000       0.00000000       0.00000000       2.13106132
Th       0.00000000       0.00000000       2.70787879       0.00000000       0.00000000      -2.13106132
2
Properties=species:S:1:pos:R:3:forces:R:3 energy=-5.895342722456215 pbc="F F F"
Th       0.00000000       0.00000000       0.00000000       0.00000000       0.00000000       2.37182879
Th       0.00000000       0.00000000       2.76666667       0.00000000       0.00000000      -2.37182879
2
Properties=species:S:1:pos:R:3:forces:R:3 energy=-5.7530772771185985 pbc="F F F"
Th       0.00000000       0.00000000       0.00000000       0.00000000       0.00000000       2.44652843
Th       0.00000000       0.00000000       2.82545455       0.00000000       0.00000000      -2.44652843
2
Properties=species:S:1:pos:R:3:forces:R:3 energy=-5.609679638871621 pbc="F F F"
Th       0.00000000       0.00000000       0.00000000       0.00000000       0.00000000       2.41885543
Th       0.00000000       0.00000000       2.88424242       0.00000000       0.00000000      -2.41885543
2
Properties=species:S:1:pos:R:3:forces:R:3 energy=-5.46987103443096 pbc="F F F"
Th       0.00000000       0.00000000       0.00000000       0.00000000       0.00000000       2.32993269
Th       0.00000000       0.00000000       2.94303030       0.00000000       0.00000000      -2.32993269
2
Properties=species:S:1:pos:R:3:forces:R:3 energy=-5.336380878346032 pbc="F F F"
Th       0.00000000       0.00000000       0.00000000       0.00000000       0.00000000       2.20788598
Th       0.00000000       0.00000000       3.00181818       0.00000000       0.00000000      -2.20788598
2
Properties=species:S:1:pos:R:3:forces:R:3 energy=-5.210496553572118 pbc="F F F"
Th       0.00000000       0.00000000       0.00000000       0.00000000       0.00000000       2.07451606
Th       0.00000000       0.00000000       3.06060606       0.00000000       0.00000000      -2.07451606
2
Properties=species:S:1:pos:R:3:forces:R:3 energy=-5.092337567493751 pbc="F F F"
Th       0.00000000       0.00000000       0.00000000       0.00000000       0.00000000       1.94782567
Th       0.00000000       0.00000000       3.11939394       0.00000000       0.00000000      -1.94782567
2
Properties=species:S:1:pos:R:3:forces:R:3 energy=-4.981064832752012 pbc="F F F"
Th       0.00000000       0.00000000       0.00000000       0.00000000       0.00000000       1.84219408
Th       0.00000000       0.00000000       3.17818182       0.00000000       0.00000000      -1.84219408
2
Properties=species:S:1:pos:R:3:forces:R:3 energy=-4.875130631285738 pbc="F F F"
Th       0.00000000       0.00000000       0.00000000       0.00000000       0.00000000       1.76738036
Th       0.00000000       0.00000000       3.23696970       0.00000000       0.00000000      -1.76738036
2
Properties=species:S:1:pos:R:3:forces:R:3 energy=-4.772582735068145 pbc="F F F"
Th       0.00000000       0.00000000       0.00000000       0.00000000       0.00000000       1.72709417
Th       0.00000000       0.00000000       3.29575758       0.00000000       0.00000000      -1.72709417
2
Properties=species:S:1:pos:R:3:forces:R:3 energy=-4.671444572034806 pbc="F F F"
Th       0.00000000       0.00000000       0.00000000       0.00000000       0.00000000       1.71838140
Th       0.00000000       0.00000000       3.35454545       0.00000000       0.00000000      -1.71838140
2
Properties=species:S:1:pos:R:3:forces:R:3 energy=-4.570086454146694 pbc="F F F"
Th       0.00000000       0.00000000       0.00000000       0.00000000       0.00000000       1.73286152
Th       0.00000000       0.00000000       3.41333333       0.00000000       0.00000000      -1.73286152
2
Properties=species:S:1:pos:R:3:forces:R:3 energy=-4.467462894911311 pbc="F F F"
Th       0.00000000       0.00000000       0.00000000       0.00000000       0.00000000       1.75952530
Th       0.00000000       0.00000000       3.47212121       0.00000000       0.00000000      -1.75952530
2
Properties=species:S:1:pos:R:3:forces:R:3 energy=-4.363178522280308 pbc="F F F"
Th       0.00000000       0.00000000       0.00000000       0.00000000       0.00000000       1.78787065
Th       0.00000000       0.00000000       3.53090909       0.00000000       0.00000000      -1.78787065
2
Properties=species:S:1:pos:R:3:forces:R:3 energy=-4.25737543571037 pbc="F F F"
Th       0.00000000       0.00000000       0.00000000       0.00000000       0.00000000       1.81010878
Th       0.00000000       0.00000000       3.58969697       0.00000000       0.00000000      -1.81010878
2
Properties=species:S:1:pos:R:3:forces:R:3 energy=-4.150558869160817 pbc="F F F"
Th       0.00000000       0.00000000       0.00000000       0.00000000       0.00000000       1.82196450
Th       0.00000000       0.00000000       3.64848485       0.00000000       0.00000000      -1.82196450
2
Properties=species:S:1:pos:R:3:forces:R:3 energy=-4.043388828262681 pbc="F F F"
Th       0.00000000       0.00000000       0.00000000       0.00000000       0.00000000       1.82204962
Th       0.00000000       0.00000000       3.70727273       0.00000000       0.00000000      -1.82204962
2
Properties=species:S:1:pos:R:3:forces:R:3 energy=-3.9365540785960387 pbc="F F F"
Th       0.00000000       0.00000000       0.00000000       0.00000000       0.00000000       1.81063104
Th       0.00000000       0.00000000       3.76606061       0.00000000       0.00000000      -1.81063104
2
Properties=species:S:1:pos:R:3:forces:R:3 energy=-3.8307152650199234 pbc="F F F"
Th       0.00000000       0.00000000       0.00000000       0.00000000       0.00000000       1.78835082
Th       0.00000000       0.00000000       3.82484848       0.00000000       0.00000000      -1.78835082
2
Properties=species:S:1:pos:R:3:forces:R:3 energy=-3.726490994695716 pbc="F F F"
Th       0.00000000       0.00000000       0.00000000       0.00000000       0.00000000       1.75563741
Th       0.00000000       0.00000000       3.88363636       0.00000000       0.00000000      -1.75563741
2
Properties=species:S:1:pos:R:3:forces:R:3 energy=-3.6244937772720482 pbc="F F F"
Th       0.00000000       0.00000000       0.00000000       0.00000000       0.00000000       1.71274745
Th       0.00000000       0.00000000       3.94242424       0.00000000       0.00000000      -1.71274745
2
Properties=species:S:1:pos:R:3:forces:R:3 energy=-3.5253046004599566 pbc="F F F"
Th       0.00000000       0.00000000       0.00000000       0.00000000       0.00000000       1.66022944
Th       0.00000000       0.00000000       4.00121212       0.00000000       0.00000000      -1.66022944
2
Properties=species:S:1:pos:R:3:forces:R:3 energy=-3.4294563801165188 pbc="F F F"
Th       0.00000000       0.00000000       0.00000000       0.00000000       0.00000000       1.59933472
Th       0.00000000       0.00000000       4.06000000       0.00000000       0.00000000      -1.59933472
2
Properties=species:S:1:pos:R:3:forces:R:3 energy=-3.337385310183429 pbc="F F F"
Th       0.00000000       0.00000000       0.00000000       0.00000000       0.00000000       1.53216779
Th       0.00000000       0.00000000       4.11878788       0.00000000       0.00000000      -1.53216779
2
Properties=species:S:1:pos:R:3:forces:R:3 energy=-3.2493800985365824 pbc="F F F"
Th       0.00000000       0.00000000       0.00000000       0.00000000       0.00000000       1.46141934
Th       0.00000000       0.00000000       4.17757576       0.00000000       0.00000000      -1.46141934
2
Properties=species:S:1:pos:R:3:forces:R:3 energy=-3.165568748594175 pbc="F F F"
Th       0.00000000       0.00000000       0.00000000       0.00000000       0.00000000       1.38999367
Th       0.00000000       0.00000000       4.23636364       0.00000000       0.00000000      -1.38999367
2
Properties=species:S:1:pos:R:3:forces:R:3 energy=-3.085911073306087 pbc="F F F"
Th       0.00000000       0.00000000       0.00000000       0.00000000       0.00000000       1.32048821
Th       0.00000000       0.00000000       4.29515152       0.00000000       0.00000000      -1.32048821
2
Properties=species:S:1:pos:R:3:forces:R:3 energy=-3.0102351311828803 pbc="F F F"
Th       0.00000000       0.00000000       0.00000000       0.00000000       0.00000000       1.25492668
Th       0.00000000       0.00000000       4.35393939       0.00000000       0.00000000      -1.25492668
2
Properties=species:S:1:pos:R:3:forces:R:3 energy=-2.938262848789454 pbc="F F F"
Th       0.00000000       0.00000000       0.00000000       0.00000000       0.00000000       1.19452167
Th       0.00000000       0.00000000       4.41272727       0.00000000       0.00000000      -1.19452167
2
Properties=species:S:1:pos:R:3:forces:R:3 energy=-2.8696765038506546 pbc="F F F"
Th       0.00000000       0.00000000       0.00000000       0.00000000       0.00000000       1.13973737
Th       0.00000000       0.00000000       4.47151515       0.00000000       0.00000000      -1.13973737
2
Properties=species:S:1:pos:R:3:forces:R:3 energy=-2.8041508547386536 pbc="F F F"
Th       0.00000000       0.00000000       0.00000000       0.00000000       0.00000000       1.09030616
Th       0.00000000       0.00000000       4.53030303       0.00000000       0.00000000      -1.09030616
2
Properties=species:S:1:pos:R:3:forces:R:3 energy=-2.741394920745089 pbc="F F F"
Th       0.00000000       0.00000000       0.00000000       0.00000000       0.00000000       1.04538298
Th       0.00000000       0.00000000       4.58909091       0.00000000       0.00000000      -1.04538298
2
Properties=species:S:1:pos:R:3:forces:R:3 energy=-2.6811764148177337 pbc="F F F"
Th       0.00000000       0.00000000       0.00000000       0.00000000       0.00000000       1.00373220
Th       0.00000000       0.00000000       4.64787879       0.00000000       0.00000000      -1.00373220
2
Properties=species:S:1:pos:R:3:forces:R:3 energy=-2.6233438404606173 pbc="F F F"
Th       0.00000000       0.00000000       0.00000000       0.00000000       0.00000000       0.96389550
Th       0.00000000       0.00000000       4.70666667       0.00000000       0.00000000      -0.96389550
2
Properties=species:S:1:pos:R:3:forces:R:3 energy=-2.5678373346116845 pbc="F F F"
Th       0.00000000       0.00000000       0.00000000       0.00000000       0.00000000       0.92449933
Th       0.00000000       0.00000000       4.76545455       0.00000000       0.00000000      -0.92449933
2
Properties=species:S:1:pos:R:3:forces:R:3 energy=-2.514654561114695 pbc="F F F"
Th       0.00000000       0.00000000       0.00000000       0.00000000       0.00000000       0.88455540
Th       0.00000000       0.00000000       4.82424242       0.00000000       0.00000000      -0.88455540
2
Properties=species:S:1:pos:R:3:forces:R:3 energy=-2.463853390344391 pbc="F F F"
Th       0.00000000       0.00000000       0.00000000       0.00000000       0.00000000       0.84381950
Th       0.00000000       0.00000000       4.88303030       0.00000000       0.00000000      -0.84381950
2
Properties=species:S:1:pos:R:3:forces:R:3 energy=-2.4154450243266194 pbc="F F F"
Th       0.00000000       0.00000000       0.00000000       0.00000000       0.00000000       0.80305374
Th       0.00000000       0.00000000       4.94181818       0.00000000       0.00000000      -0.80305374
2
Properties=species:S:1:pos:R:3:forces:R:3 energy=-2.3693966446852763 pbc="F F F"
Th       0.00000000       0.00000000       0.00000000       0.00000000       0.00000000       0.76407075
Th       0.00000000       0.00000000       5.00060606       0.00000000       0.00000000      -0.76407075
2
Properties=species:S:1:pos:R:3:forces:R:3 energy=-2.325523202285617 pbc="F F F"
Th       0.00000000       0.00000000       0.00000000       0.00000000       0.00000000       0.72934175
Th       0.00000000       0.00000000       5.05939394       0.00000000       0.00000000      -0.72934175
2
Properties=species:S:1:pos:R:3:forces:R:3 energy=-2.28351617718331 pbc="F F F"
Th       0.00000000       0.00000000       0.00000000       0.00000000       0.00000000       0.70103717
Th       0.00000000       0.00000000       5.11818182       0.00000000       0.00000000      -0.70103717
2
Properties=species:S:1:pos:R:3:forces:R:3 energy=-2.242966454136737 pbc="F F F"
Th       0.00000000       0.00000000       0.00000000       0.00000000       0.00000000       0.67945576
Th       0.00000000       0.00000000       5.17696970       0.00000000       0.00000000      -0.67945576
2
Properties=species:S:1:pos:R:3:forces:R:3 energy=-2.2035645498639322 pbc="F F F"
Th       0.00000000       0.00000000       0.00000000       0.00000000       0.00000000       0.66103363
Th       0.00000000       0.00000000       5.23575758       0.00000000       0.00000000      -0.66103363
2
Properties=species:S:1:pos:R:3:forces:R:3 energy=-2.1653494016619224 pbc="F F F"
Th       0.00000000       0.00000000       0.00000000       0.00000000       0.00000000       0.63727987
Th       0.00000000       0.00000000       5.29454545       0.00000000       0.00000000      -0.63727987
2
Properties=species:S:1:pos:R:3:forces:R:3 energy=-2.128912253305722 pbc="F F F"
Th       0.00000000       0.00000000       0.00000000       0.00000000       0.00000000       0.59991276
Th       0.00000000       0.00000000       5.35333333       0.00000000       0.00000000      -0.59991276
2
Properties=species:S:1:pos:R:3:forces:R:3 energy=-2.0949311669472643 pbc="F F F"
Th       0.00000000       0.00000000       0.00000000       0.00000000       0.00000000       0.55764490
Th       0.00000000       0.00000000       5.41212121       0.00000000       0.00000000      -0.55764490
2
Properties=species:S:1:pos:R:3:forces:R:3 energy=-2.062883592130572 pbc="F F F"
Th       0.00000000       0.00000000       0.00000000       0.00000000       0.00000000       0.53753853
Th       0.00000000       0.00000000       5.47090909       0.00000000       0.00000000      -0.53753853
2
Properties=species:S:1:pos:R:3:forces:R:3 energy=-2.0314607752960967 pbc="F F F"
Th       0.00000000       0.00000000       0.00000000       0.00000000       0.00000000       0.52909023
Th       0.00000000       0.00000000       5.52969697       0.00000000       0.00000000      -0.52909023
2
Properties=species:S:1:pos:R:3:forces:R:3 energy=-2.001366962625868 pbc="F F F"
Th       0.00000000       0.00000000       0.00000000       0.00000000       0.00000000       0.48802429
Th       0.00000000       0.00000000       5.58848485       0.00000000       0.00000000      -0.48802429
2
Properties=species:S:1:pos:R:3:forces:R:3 energy=-1.9745627521721827 pbc="F F F"
Th       0.00000000       0.00000000       0.00000000       0.00000000       0.00000000       0.42474595
Th       0.00000000       0.00000000       5.64727273       0.00000000       0.00000000      -0.42474595
2
Properties=species:S:1:pos:R:3:forces:R:3 energy=-1.9507341262044482 pbc="F F F"
Th       0.00000000       0.00000000       0.00000000       0.00000000       0.00000000       0.39680886
Th       0.00000000       0.00000000       5.70606061       0.00000000       0.00000000      -0.39680886
2
Properties=species:S:1:pos:R:3:forces:R:3 energy=-1.9265237148503787 pbc="F F F"
Th       0.00000000       0.00000000       0.00000000       0.00000000       0.00000000       0.43050748
Th       0.00000000       0.00000000       5.76484848       0.00000000       0.00000000      -0.43050748
2
Properties=species:S:1:pos:R:3:forces:R:3 energy=-1.901060894863372 pbc="F F F"
Th       0.00000000       0.00000000       0.00000000       0.00000000       0.00000000       0.41580725
Th       0.00000000       0.00000000       5.82363636       0.00000000       0.00000000      -0.41580725
2
Properties=species:S:1:pos:R:3:forces:R:3 energy=-1.8804000948563995 pbc="F F F"
Th       0.00000000       0.00000000       0.00000000       0.00000000       0.00000000       0.27284411
Th       0.00000000       0.00000000       5.88242424       0.00000000       0.00000000      -0.27284411
2
Properties=species:S:1:pos:R:3:forces:R:3 energy=-1.8695035634346442 pbc="F F F"
Th       0.00000000       0.00000000       0.00000000       0.00000000       0.00000000       0.10432686
Th       0.00000000       0.00000000       5.94121212       0.00000000       0.00000000      -0.10432686
2
Properties=species:S:1:pos:R:3:forces:R:3 energy=-1.8661054021332155 pbc="F F F"
Th       0.00000000       0.00000000       0.00000000       0.00000000       0.00000000       0.03418691
Th       0.00000000       0.00000000       6.00000000       0.00000000       0.00000000      -0.03418691
