2
Properties=species:S:1:pos:R:3:forces:R:3 energy=17685.411893347104 pbc="F F F"
Tl       0.00000000       0.00000000       0.00000000       0.00000000       0.00000000 -296485.84375000
Tl       0.00000000       0.00000000       0.18000000       0.00000000       0.00000000  296485.84375000
2
Properties=species:S:1:pos:R:3:forces:R:3 energy=7368.8835730346045 pbc="F F F"
Tl       0.00000000       0.00000000       0.00000000       0.00000000       0.00000000  -97030.90625000
Tl       0.00000000       0.00000000       0.23878788       0.00000000       0.00000000   97030.90625000
2
Properties=species:S:1:pos:R:3:forces:R:3 energy=3727.8916296752295 pbc="F F F"
Tl       0.00000000       0.00000000       0.00000000       0.00000000       0.00000000  -37473.81640625
Tl       0.00000000       0.00000000       0.29757576       0.00000000       0.00000000   37473.81640625
2
Properties=species:S:1:pos:R:3:forces:R:3 energy=2248.1811804564795 pbc="F F F"
Tl       0.00000000       0.00000000       0.00000000       0.00000000       0.00000000  -16237.93457031
Tl       0.00000000       0.00000000       0.35636364       0.00000000       0.00000000   16237.93457031
2
Properties=species:S:1:pos:R:3:forces:R:3 energy=1575.679593545585 pbc="F F F"
Tl       0.00000000       0.00000000       0.00000000       0.00000000       0.00000000   -7862.54541016
Tl       0.00000000       0.00000000       0.41515152       0.00000000       0.00000000    7862.54541016
2
Properties=species:S:1:pos:R:3:forces:R:3 energy=1233.7402624940653 pbc="F F F"
Tl       0.00000000       0.00000000       0.00000000       0.00000000       0.00000000   -4266.00244141
Tl       0.00000000       0.00000000       0.47393939       0.00000000       0.00000000    4266.00244141
2
Properties=species:S:1:pos:R:3:forces:R:3 energy=1031.5392126957136 pbc="F F F"
Tl       0.00000000       0.00000000       0.00000000       0.00000000       0.00000000   -2839.71118164
Tl       0.00000000       0.00000000       0.53272727       0.00000000       0.00000000    2839.71118164
2
Properties=species:S:1:pos:R:3:forces:R:3 energy=883.0657630076892 pbc="F F F"
Tl       0.00000000       0.00000000       0.00000000       0.00000000       0.00000000   -2302.34692383
Tl       0.00000000       0.00000000       0.59151515       0.00000000       0.00000000    2302.34692383
2
Properties=species:S:1:pos:R:3:forces:R:3 energy=753.8447547322505 pbc="F F F"
Tl       0.00000000       0.00000000       0.00000000       0.00000000       0.00000000   -2128.84228516
Tl       0.00000000       0.00000000       0.65030303       0.00000000       0.00000000    2128.84228516
2
Properties=species:S:1:pos:R:3:forces:R:3 energy=630.6679359226082 pbc="F F F"
Tl       0.00000000       0.00000000       0.00000000       0.00000000       0.00000000   -2065.44311523
Tl       0.00000000       0.00000000       0.70909091       0.00000000       0.00000000    2065.44311523
2
Properties=species:S:1:pos:R:3:forces:R:3 energy=512.1515175225977 pbc="F F F"
Tl       0.00000000       0.00000000       0.00000000       0.00000000       0.00000000   -1939.65625000
Tl       0.00000000       0.00000000       0.76787879       0.00000000       0.00000000    1939.65625000
2
Properties=species:S:1:pos:R:3:forces:R:3 energy=407.6132790795705 pbc="F F F"
Tl       0.00000000       0.00000000       0.00000000       0.00000000       0.00000000   -1580.01489258
Tl       0.00000000       0.00000000       0.82666667       0.00000000       0.00000000    1580.01489258
2
Properties=species:S:1:pos:R:3:forces:R:3 energy=324.1868570871427 pbc="F F F"
Tl       0.00000000       0.00000000       0.00000000       0.00000000       0.00000000   -1294.00659180
Tl       0.00000000       0.00000000       0.88545455       0.00000000       0.00000000    1294.00659180
2
Properties=species:S:1:pos:R:3:forces:R:3 energy=255.13978389394728 pbc="F F F"
Tl       0.00000000       0.00000000       0.00000000       0.00000000       0.00000000   -1048.35754395
Tl       0.00000000       0.00000000       0.94424242       0.00000000       0.00000000    1048.35754395
2
Properties=species:S:1:pos:R:3:forces:R:3 energy=201.30402973383488 pbc="F F F"
Tl       0.00000000       0.00000000       0.00000000       0.00000000       0.00000000    -791.06616211
Tl       0.00000000       0.00000000       1.00303030       0.00000000       0.00000000     791.06616211
2
Properties=species:S:1:pos:R:3:forces:R:3 energy=160.72736990070274 pbc="F F F"
Tl       0.00000000       0.00000000       0.00000000       0.00000000       0.00000000    -598.52734375
Tl       0.00000000       0.00000000       1.06181818       0.00000000       0.00000000     598.52734375
2
Properties=species:S:1:pos:R:3:forces:R:3 energy=129.94233614550342 pbc="F F F"
Tl       0.00000000       0.00000000       0.00000000       0.00000000       0.00000000    -456.91998291
Tl       0.00000000       0.00000000       1.12060606       0.00000000       0.00000000     456.91998291
2
Properties=species:S:1:pos:R:3:forces:R:3 energy=106.34453548820836 pbc="F F F"
Tl       0.00000000       0.00000000       0.00000000       0.00000000       0.00000000    -349.88275146
Tl       0.00000000       0.00000000       1.17939394       0.00000000       0.00000000     349.88275146
2
Properties=species:S:1:pos:R:3:forces:R:3 energy=88.13845100539369 pbc="F F F"
Tl       0.00000000       0.00000000       0.00000000       0.00000000       0.00000000    -276.62725830
Tl       0.00000000       0.00000000       1.23818182       0.00000000       0.00000000     276.62725830
2
Properties=species:S:1:pos:R:3:forces:R:3 energy=73.15861641380822 pbc="F F F"
Tl       0.00000000       0.00000000       0.00000000       0.00000000       0.00000000    -235.95149231
Tl       0.00000000       0.00000000       1.29696970       0.00000000       0.00000000     235.95149231
2
Properties=species:S:1:pos:R:3:forces:R:3 energy=60.33119829222526 pbc="F F F"
Tl       0.00000000       0.00000000       0.00000000       0.00000000       0.00000000    -199.54470825
Tl       0.00000000       0.00000000       1.35575758       0.00000000       0.00000000     199.54470825
2
Properties=species:S:1:pos:R:3:forces:R:3 energy=49.75331507535118 pbc="F F F"
Tl       0.00000000       0.00000000       0.00000000       0.00000000       0.00000000    -161.08940125
Tl       0.00000000       0.00000000       1.41454545       0.00000000       0.00000000     161.08940125
2
Properties=species:S:1:pos:R:3:forces:R:3 energy=41.18932533437895 pbc="F F F"
Tl       0.00000000       0.00000000       0.00000000       0.00000000       0.00000000    -132.21170044
Tl       0.00000000       0.00000000       1.47333333       0.00000000       0.00000000     132.21170044
2
Properties=species:S:1:pos:R:3:forces:R:3 energy=34.02829393098682 pbc="F F F"
Tl       0.00000000       0.00000000       0.00000000       0.00000000       0.00000000    -112.46472931
Tl       0.00000000       0.00000000       1.53212121       0.00000000       0.00000000     112.46472931
2
Properties=species:S:1:pos:R:3:forces:R:3 energy=27.883029171909428 pbc="F F F"
Tl       0.00000000       0.00000000       0.00000000       0.00000000       0.00000000     -97.06388092
Tl       0.00000000       0.00000000       1.59090909       0.00000000       0.00000000      97.06388092
2
Properties=species:S:1:pos:R:3:forces:R:3 energy=22.578131356068873 pbc="F F F"
Tl       0.00000000       0.00000000       0.00000000       0.00000000       0.00000000     -83.63748169
Tl       0.00000000       0.00000000       1.64969697       0.00000000       0.00000000      83.63748169
2
Properties=species:S:1:pos:R:3:forces:R:3 energy=18.028605318227907 pbc="F F F"
Tl       0.00000000       0.00000000       0.00000000       0.00000000       0.00000000     -71.28810120
Tl       0.00000000       0.00000000       1.70848485       0.00000000       0.00000000      71.28810120
2
Properties=species:S:1:pos:R:3:forces:R:3 energy=14.178930173746869 pbc="F F F"
Tl       0.00000000       0.00000000       0.00000000       0.00000000       0.00000000     -59.84294128
Tl       0.00000000       0.00000000       1.76727273       0.00000000       0.00000000      59.84294128
2
Properties=species:S:1:pos:R:3:forces:R:3 energy=10.970767855545045 pbc="F F F"
Tl       0.00000000       0.00000000       0.00000000       0.00000000       0.00000000     -49.50487900
Tl       0.00000000       0.00000000       1.82606061       0.00000000       0.00000000      49.50487900
2
Properties=species:S:1:pos:R:3:forces:R:3 energy=8.33341407770861 pbc="F F F"
Tl       0.00000000       0.00000000       0.00000000       0.00000000       0.00000000     -40.43341064
Tl       0.00000000       0.00000000       1.88484848       0.00000000       0.00000000      40.43341064
2
Properties=species:S:1:pos:R:3:forces:R:3 energy=6.191924944465002 pbc="F F F"
Tl       0.00000000       0.00000000       0.00000000       0.00000000       0.00000000     -32.63076019
Tl       0.00000000       0.00000000       1.94363636       0.00000000       0.00000000      32.63076019
2
Properties=species:S:1:pos:R:3:forces:R:3 energy=4.472270262400151 pbc="F F F"
Tl       0.00000000       0.00000000       0.00000000       0.00000000       0.00000000     -26.07946014
Tl       0.00000000       0.00000000       2.00242424       0.00000000       0.00000000      26.07946014
2
Properties=species:S:1:pos:R:3:forces:R:3 energy=3.102147629032335 pbc="F F F"
Tl       0.00000000       0.00000000       0.00000000       0.00000000       0.00000000     -20.72287750
Tl       0.00000000       0.00000000       2.06121212       0.00000000       0.00000000      20.72287750
2
Properties=species:S:1:pos:R:3:forces:R:3 energy=2.0149981612895016 pbc="F F F"
Tl       0.00000000       0.00000000       0.00000000       0.00000000       0.00000000     -16.42463684
Tl       0.00000000       0.00000000       2.12000000       0.00000000       0.00000000      16.42463684
2
Properties=species:S:1:pos:R:3:forces:R:3 energy=1.1537258221754272 pbc="F F F"
Tl       0.00000000       0.00000000       0.00000000       0.00000000       0.00000000     -13.00851727
Tl       0.00000000       0.00000000       2.17878788       0.00000000       0.00000000      13.00851727
2
Properties=species:S:1:pos:R:3:forces:R:3 energy=0.47157175180046185 pbc="F F F"
Tl       0.00000000       0.00000000       0.00000000       0.00000000       0.00000000     -10.30453396
Tl       0.00000000       0.00000000       2.23757576       0.00000000       0.00000000      10.30453396
2
Properties=species:S:1:pos:R:3:forces:R:3 energy=-0.0689198547823674 pbc="F F F"
Tl       0.00000000       0.00000000       0.00000000       0.00000000       0.00000000      -8.16710377
Tl       0.00000000       0.00000000       2.29636364       0.00000000       0.00000000       8.16710377
2
Properties=species:S:1:pos:R:3:forces:R:3 energy=-0.497416905275114 pbc="F F F"
Tl       0.00000000       0.00000000       0.00000000       0.00000000       0.00000000      -6.47638369
Tl       0.00000000       0.00000000       2.35515152       0.00000000       0.00000000       6.47638369
2
Properties=species:S:1:pos:R:3:forces:R:3 energy=-0.837201627702239 pbc="F F F"
Tl       0.00000000       0.00000000       0.00000000       0.00000000       0.00000000      -5.13406420
Tl       0.00000000       0.00000000       2.41393939       0.00000000       0.00000000       5.13406420
2
Properties=species:S:1:pos:R:3:forces:R:3 energy=-1.1063089621050224 pbc="F F F"
Tl       0.00000000       0.00000000       0.00000000       0.00000000       0.00000000      -4.06013823
Tl       0.00000000       0.00000000       2.47272727       0.00000000       0.00000000       4.06013823
2
Properties=species:S:1:pos:R:3:forces:R:3 energy=-1.3185851623754805 pbc="F F F"
Tl       0.00000000       0.00000000       0.00000000       0.00000000       0.00000000      -3.19141626
Tl       0.00000000       0.00000000       2.53151515       0.00000000       0.00000000       3.19141626
2
Properties=species:S:1:pos:R:3:forces:R:3 energy=-1.4846250368218492 pbc="F F F"
Tl       0.00000000       0.00000000       0.00000000       0.00000000       0.00000000      -2.48044538
Tl       0.00000000       0.00000000       2.59030303       0.00000000       0.00000000       2.48044538
2
Properties=species:S:1:pos:R:3:forces:R:3 energy=-1.6126403528729458 pbc="F F F"
Tl       0.00000000       0.00000000       0.00000000       0.00000000       0.00000000      -1.89301217
Tl       0.00000000       0.00000000       2.64909091       0.00000000       0.00000000       1.89301217
2
Properties=species:S:1:pos:R:3:forces:R:3 energy=-1.7091376104134008 pbc="F F F"
Tl       0.00000000       0.00000000       0.00000000       0.00000000       0.00000000      -1.40480030
Tl       0.00000000       0.00000000       2.70787879       0.00000000       0.00000000       1.40480030
2
Properties=species:S:1:pos:R:3:forces:R:3 energy=-1.7794072692043774 pbc="F F F"
Tl       0.00000000       0.00000000       0.00000000       0.00000000       0.00000000      -0.99821264
Tl       0.00000000       0.00000000       2.76666667       0.00000000       0.00000000       0.99821264
2
Properties=species:S:1:pos:R:3:forces:R:3 energy=-1.8278431537518374 pbc="F F F"
Tl       0.00000000       0.00000000       0.00000000       0.00000000       0.00000000      -0.66011733
Tl       0.00000000       0.00000000       2.82545455       0.00000000       0.00000000       0.66011733
2
Properties=species:S:1:pos:R:3:forces:R:3 energy=-1.8581649351826388 pbc="F F F"
Tl       0.00000000       0.00000000       0.00000000       0.00000000       0.00000000      -0.38047004
Tl       0.00000000       0.00000000       2.88424242       0.00000000       0.00000000       0.38047004
2
Properties=species:S:1:pos:R:3:forces:R:3 energy=-1.8735668997660881 pbc="F F F"
Tl       0.00000000       0.00000000       0.00000000       0.00000000       0.00000000      -0.15136665
Tl       0.00000000       0.00000000       2.94303030       0.00000000       0.00000000       0.15136665
2
Properties=species:S:1:pos:R:3:forces:R:3 energy=-1.876823567672414 pbc="F F F"
Tl       0.00000000       0.00000000       0.00000000       0.00000000       0.00000000       0.03376201
Tl       0.00000000       0.00000000       3.00181818       0.00000000       0.00000000      -0.03376201
2
Properties=species:S:1:pos:R:3:forces:R:3 energy=-1.8703425268626632 pbc="F F F"
Tl       0.00000000       0.00000000       0.00000000       0.00000000       0.00000000       0.18087363
Tl       0.00000000       0.00000000       3.06060606       0.00000000       0.00000000      -0.18087363
2
Properties=species:S:1:pos:R:3:forces:R:3 energy=-1.8561881837518366 pbc="F F F"
Tl       0.00000000       0.00000000       0.00000000       0.00000000       0.00000000       0.29578030
Tl       0.00000000       0.00000000       3.11939394       0.00000000       0.00000000      -0.29578030
2
Properties=species:S:1:pos:R:3:forces:R:3 energy=-1.8360831038697258 pbc="F F F"
Tl       0.00000000       0.00000000       0.00000000       0.00000000       0.00000000       0.38426194
Tl       0.00000000       0.00000000       3.17818182       0.00000000       0.00000000      -0.38426194
2
Properties=species:S:1:pos:R:3:forces:R:3 energy=-1.8114172678521927 pbc="F F F"
Tl       0.00000000       0.00000000       0.00000000       0.00000000       0.00000000       0.45184821
Tl       0.00000000       0.00000000       3.23696970       0.00000000       0.00000000      -0.45184821
2
Properties=species:S:1:pos:R:3:forces:R:3 energy=-1.783269174829426 pbc="F F F"
Tl       0.00000000       0.00000000       0.00000000       0.00000000       0.00000000       0.50347853
Tl       0.00000000       0.00000000       3.29575758       0.00000000       0.00000000      -0.50347853
2
Properties=species:S:1:pos:R:3:forces:R:3 energy=-1.7524529267513078 pbc="F F F"
Tl       0.00000000       0.00000000       0.00000000       0.00000000       0.00000000       0.54321206
Tl       0.00000000       0.00000000       3.35454545       0.00000000       0.00000000      -0.54321206
2
Properties=species:S:1:pos:R:3:forces:R:3 energy=-1.7195730036073995 pbc="F F F"
Tl       0.00000000       0.00000000       0.00000000       0.00000000       0.00000000       0.57411391
Tl       0.00000000       0.00000000       3.41333333       0.00000000       0.00000000      -0.57411391
2
Properties=species:S:1:pos:R:3:forces:R:3 energy=-1.6850816265651032 pbc="F F F"
Tl       0.00000000       0.00000000       0.00000000       0.00000000       0.00000000       0.59829360
Tl       0.00000000       0.00000000       3.47212121       0.00000000       0.00000000      -0.59829360
2
Properties=species:S:1:pos:R:3:forces:R:3 energy=-1.649335094606268 pbc="F F F"
Tl       0.00000000       0.00000000       0.00000000       0.00000000       0.00000000       0.61700410
Tl       0.00000000       0.00000000       3.53090909       0.00000000       0.00000000      -0.61700410
2
Properties=species:S:1:pos:R:3:forces:R:3 energy=-1.6126323898749575 pbc="F F F"
Tl       0.00000000       0.00000000       0.00000000       0.00000000       0.00000000       0.63084292
Tl       0.00000000       0.00000000       3.58969697       0.00000000       0.00000000      -0.63084292
2
Properties=species:S:1:pos:R:3:forces:R:3 energy=-1.575253214993287 pbc="F F F"
Tl       0.00000000       0.00000000       0.00000000       0.00000000       0.00000000       0.64007407
Tl       0.00000000       0.00000000       3.64848485       0.00000000       0.00000000      -0.64007407
2
Properties=species:S:1:pos:R:3:forces:R:3 energy=-1.5374619109690166 pbc="F F F"
Tl       0.00000000       0.00000000       0.00000000       0.00000000       0.00000000       0.64491302
Tl       0.00000000       0.00000000       3.70727273       0.00000000       0.00000000      -0.64491302
2
Properties=species:S:1:pos:R:3:forces:R:3 energy=-1.4995074406680395 pbc="F F F"
Tl       0.00000000       0.00000000       0.00000000       0.00000000       0.00000000       0.64564055
Tl       0.00000000       0.00000000       3.76606061       0.00000000       0.00000000      -0.64564055
2
Properties=species:S:1:pos:R:3:forces:R:3 energy=-1.4616237132437075 pbc="F F F"
Tl       0.00000000       0.00000000       0.00000000       0.00000000       0.00000000       0.64259470
Tl       0.00000000       0.00000000       3.82484848       0.00000000       0.00000000      -0.64259470
2
Properties=species:S:1:pos:R:3:forces:R:3 energy=-1.424020817494149 pbc="F F F"
Tl       0.00000000       0.00000000       0.00000000       0.00000000       0.00000000       0.63613123
Tl       0.00000000       0.00000000       3.88363636       0.00000000       0.00000000      -0.63613123
2
Properties=species:S:1:pos:R:3:forces:R:3 energy=-1.3868900865051481 pbc="F F F"
Tl       0.00000000       0.00000000       0.00000000       0.00000000       0.00000000       0.62660098
Tl       0.00000000       0.00000000       3.94242424       0.00000000       0.00000000      -0.62660098
2
Properties=species:S:1:pos:R:3:forces:R:3 energy=-1.3504018286739004 pbc="F F F"
Tl       0.00000000       0.00000000       0.00000000       0.00000000       0.00000000       0.61433929
Tl       0.00000000       0.00000000       4.00121212       0.00000000       0.00000000      -0.61433929
2
Properties=species:S:1:pos:R:3:forces:R:3 energy=-1.3147061581743016 pbc="F F F"
Tl       0.00000000       0.00000000       0.00000000       0.00000000       0.00000000       0.59968340
Tl       0.00000000       0.00000000       4.06000000       0.00000000       0.00000000      -0.59968340
2
Properties=species:S:1:pos:R:3:forces:R:3 energy=-1.2799336523599683 pbc="F F F"
Tl       0.00000000       0.00000000       0.00000000       0.00000000       0.00000000       0.58300197
Tl       0.00000000       0.00000000       4.11878788       0.00000000       0.00000000      -0.58300197
2
Properties=species:S:1:pos:R:3:forces:R:3 energy=-1.2461906067353616 pbc="F F F"
Tl       0.00000000       0.00000000       0.00000000       0.00000000       0.00000000       0.56471145
Tl       0.00000000       0.00000000       4.17757576       0.00000000       0.00000000      -0.56471145
2
Properties=species:S:1:pos:R:3:forces:R:3 energy=-1.2135584717555141 pbc="F F F"
Tl       0.00000000       0.00000000       0.00000000       0.00000000       0.00000000       0.54530108
Tl       0.00000000       0.00000000       4.23636364       0.00000000       0.00000000      -0.54530108
2
Properties=species:S:1:pos:R:3:forces:R:3 energy=-1.1820869323515915 pbc="F F F"
Tl       0.00000000       0.00000000       0.00000000       0.00000000       0.00000000       0.52530837
Tl       0.00000000       0.00000000       4.29515152       0.00000000       0.00000000      -0.52530837
2
Properties=species:S:1:pos:R:3:forces:R:3 energy=-1.151795816447477 pbc="F F F"
Tl       0.00000000       0.00000000       0.00000000       0.00000000       0.00000000       0.50529557
Tl       0.00000000       0.00000000       4.35393939       0.00000000       0.00000000      -0.50529557
2
Properties=species:S:1:pos:R:3:forces:R:3 energy=-1.1226674528939518 pbc="F F F"
Tl       0.00000000       0.00000000       0.00000000       0.00000000       0.00000000       0.48577419
Tl       0.00000000       0.00000000       4.41272727       0.00000000       0.00000000      -0.48577419
2
Properties=species:S:1:pos:R:3:forces:R:3 energy=-1.0946623607455355 pbc="F F F"
Tl       0.00000000       0.00000000       0.00000000       0.00000000       0.00000000       0.46713665
Tl       0.00000000       0.00000000       4.47151515       0.00000000       0.00000000      -0.46713665
2
Properties=species:S:1:pos:R:3:forces:R:3 energy=-1.067722200982326 pbc="F F F"
Tl       0.00000000       0.00000000       0.00000000       0.00000000       0.00000000       0.44955990
Tl       0.00000000       0.00000000       4.53030303       0.00000000       0.00000000      -0.44955990
2
Properties=species:S:1:pos:R:3:forces:R:3 energy=-1.0417862970840437 pbc="F F F"
Tl       0.00000000       0.00000000       0.00000000       0.00000000       0.00000000       0.43293500
Tl       0.00000000       0.00000000       4.58909091       0.00000000       0.00000000      -0.43293500
2
Properties=species:S:1:pos:R:3:forces:R:3 energy=-1.0168090801840195 pbc="F F F"
Tl       0.00000000       0.00000000       0.00000000       0.00000000       0.00000000       0.41685781
Tl       0.00000000       0.00000000       4.64787879       0.00000000       0.00000000      -0.41685781
2
Properties=species:S:1:pos:R:3:forces:R:3 energy=-0.9927756205389021 pbc="F F F"
Tl       0.00000000       0.00000000       0.00000000       0.00000000       0.00000000       0.40067208
Tl       0.00000000       0.00000000       4.70666667       0.00000000       0.00000000      -0.40067208
2
Properties=species:S:1:pos:R:3:forces:R:3 energy=-0.9697161964045619 pbc="F F F"
Tl       0.00000000       0.00000000       0.00000000       0.00000000       0.00000000       0.38366187
Tl       0.00000000       0.00000000       4.76545455       0.00000000       0.00000000      -0.38366187
2
Properties=species:S:1:pos:R:3:forces:R:3 energy=-0.9476919889213437 pbc="F F F"
Tl       0.00000000       0.00000000       0.00000000       0.00000000       0.00000000       0.36532328
Tl       0.00000000       0.00000000       4.82424242       0.00000000       0.00000000      -0.36532328
2
Properties=species:S:1:pos:R:3:forces:R:3 energy=-0.926789485029127 pbc="F F F"
Tl       0.00000000       0.00000000       0.00000000       0.00000000       0.00000000       0.34569997
Tl       0.00000000       0.00000000       4.88303030       0.00000000       0.00000000      -0.34569997
2
Properties=species:S:1:pos:R:3:forces:R:3 energy=-0.907055561673521 pbc="F F F"
Tl       0.00000000       0.00000000       0.00000000       0.00000000       0.00000000       0.32566580
Tl       0.00000000       0.00000000       4.94181818       0.00000000       0.00000000      -0.32566580
2
Properties=species:S:1:pos:R:3:forces:R:3 energy=-0.8884711399688977 pbc="F F F"
Tl       0.00000000       0.00000000       0.00000000       0.00000000       0.00000000       0.30702537
Tl       0.00000000       0.00000000       5.00060606       0.00000000       0.00000000      -0.30702537
2
Properties=species:S:1:pos:R:3:forces:R:3 energy=-0.8708812473592914 pbc="F F F"
Tl       0.00000000       0.00000000       0.00000000       0.00000000       0.00000000       0.29220068
Tl       0.00000000       0.00000000       5.05939394       0.00000000       0.00000000      -0.29220068
2
Properties=species:S:1:pos:R:3:forces:R:3 energy=-0.8539950570481587 pbc="F F F"
Tl       0.00000000       0.00000000       0.00000000       0.00000000       0.00000000       0.28347057
Tl       0.00000000       0.00000000       5.11818182       0.00000000       0.00000000      -0.28347057
2
Properties=species:S:1:pos:R:3:forces:R:3 energy=-0.8374159119002993 pbc="F F F"
Tl       0.00000000       0.00000000       0.00000000       0.00000000       0.00000000       0.28163758
Tl       0.00000000       0.00000000       5.17696970       0.00000000       0.00000000      -0.28163758
2
Properties=species:S:1:pos:R:3:forces:R:3 energy=-0.8207895400185926 pbc="F F F"
Tl       0.00000000       0.00000000       0.00000000       0.00000000       0.00000000       0.28436118
Tl       0.00000000       0.00000000       5.23575758       0.00000000       0.00000000      -0.28436118
2
Properties=species:S:1:pos:R:3:forces:R:3 energy=-0.8040229725168151 pbc="F F F"
Tl       0.00000000       0.00000000       0.00000000       0.00000000       0.00000000       0.28490406
Tl       0.00000000       0.00000000       5.29454545       0.00000000       0.00000000      -0.28490406
2
Properties=species:S:1:pos:R:3:forces:R:3 energy=-0.7875061947706031 pbc="F F F"
Tl       0.00000000       0.00000000       0.00000000       0.00000000       0.00000000       0.27479339
Tl       0.00000000       0.00000000       5.35333333       0.00000000       0.00000000      -0.27479339
2
Properties=species:S:1:pos:R:3:forces:R:3 energy=-0.7718891816964182 pbc="F F F"
Tl       0.00000000       0.00000000       0.00000000       0.00000000       0.00000000       0.25676459
Tl       0.00000000       0.00000000       5.41212121       0.00000000       0.00000000      -0.25676459
2
Properties=species:S:1:pos:R:3:forces:R:3 energy=-0.7569815595790381 pbc="F F F"
Tl       0.00000000       0.00000000       0.00000000       0.00000000       0.00000000       0.25520828
Tl       0.00000000       0.00000000       5.47090909       0.00000000       0.00000000      -0.25520828
2
Properties=species:S:1:pos:R:3:forces:R:3 energy=-0.7414605528156244 pbc="F F F"
Tl       0.00000000       0.00000000       0.00000000       0.00000000       0.00000000       0.27251604
Tl       0.00000000       0.00000000       5.52969697       0.00000000       0.00000000      -0.27251604
2
Properties=species:S:1:pos:R:3:forces:R:3 energy=-0.7254975374475294 pbc="F F F"
Tl       0.00000000       0.00000000       0.00000000       0.00000000       0.00000000       0.26362467
Tl       0.00000000       0.00000000       5.58848485       0.00000000       0.00000000      -0.26362467
2
Properties=species:S:1:pos:R:3:forces:R:3 energy=-0.711073208347113 pbc="F F F"
Tl       0.00000000       0.00000000       0.00000000       0.00000000       0.00000000       0.22594783
Tl       0.00000000       0.00000000       5.64727273       0.00000000       0.00000000      -0.22594783
2
Properties=species:S:1:pos:R:3:forces:R:3 energy=-0.6985229472755619 pbc="F F F"
Tl       0.00000000       0.00000000       0.00000000       0.00000000       0.00000000       0.20924547
Tl       0.00000000       0.00000000       5.70606061       0.00000000       0.00000000      -0.20924547
2
Properties=species:S:1:pos:R:3:forces:R:3 energy=-0.6852998540255102 pbc="F F F"
Tl       0.00000000       0.00000000       0.00000000       0.00000000       0.00000000       0.24573302
Tl       0.00000000       0.00000000       5.76484848       0.00000000       0.00000000      -0.24573302
2
Properties=species:S:1:pos:R:3:forces:R:3 energy=-0.6701476955281879 pbc="F F F"
Tl       0.00000000       0.00000000       0.00000000       0.00000000       0.00000000       0.25542101
Tl       0.00000000       0.00000000       5.82363636       0.00000000       0.00000000      -0.25542101
2
Properties=species:S:1:pos:R:3:forces:R:3 energy=-0.65734561320121 pbc="F F F"
Tl       0.00000000       0.00000000       0.00000000       0.00000000       0.00000000       0.16867270
Tl       0.00000000       0.00000000       5.88242424       0.00000000       0.00000000      -0.16867270
2
Properties=species:S:1:pos:R:3:forces:R:3 energy=-0.6507922474970633 pbc="F F F"
Tl       0.00000000       0.00000000       0.00000000       0.00000000       0.00000000       0.05804825
Tl       0.00000000       0.00000000       5.94121212       0.00000000       0.00000000      -0.05804825
2
Properties=species:S:1:pos:R:3:forces:R:3 energy=-0.6491930268010065 pbc="F F F"
Tl       0.00000000       0.00000000       0.00000000       0.00000000       0.00000000       0.01155493
Tl       0.00000000       0.00000000       6.00000000       0.00000000       0.00000000      -0.01155493
