2
Properties=species:S:1:pos:R:3:forces:R:3 energy=834.2402427916987 pbc="F F F"
Tm       0.00000000       0.00000000       0.00000000       0.00000000       0.00000000 -234012.20312500
Tm       0.00000000       0.00000000       0.18000000       0.00000000       0.00000000  234012.20312500
2
Properties=species:S:1:pos:R:3:forces:R:3 energy=-7363.962454962208 pbc="F F F"
Tm       0.00000000       0.00000000       0.00000000       0.00000000       0.00000000  -77833.85937500
Tm       0.00000000       0.00000000       0.23878788       0.00000000       0.00000000   77833.85937500
2
Properties=species:S:1:pos:R:3:forces:R:3 energy=-10298.550345587208 pbc="F F F"
Tm       0.00000000       0.00000000       0.00000000       0.00000000       0.00000000  -30286.12500000
Tm       0.00000000       0.00000000       0.29757576       0.00000000       0.00000000   30286.12500000
2
Properties=species:S:1:pos:R:3:forces:R:3 energy=-11478.088431524708 pbc="F F F"
Tm       0.00000000       0.00000000       0.00000000       0.00000000       0.00000000  -12386.32031250
Tm       0.00000000       0.00000000       0.35636364       0.00000000       0.00000000   12386.32031250
2
Properties=species:S:1:pos:R:3:forces:R:3 energy=-11925.720267449537 pbc="F F F"
Tm       0.00000000       0.00000000       0.00000000       0.00000000       0.00000000   -3552.00366211
Tm       0.00000000       0.00000000       0.41515152       0.00000000       0.00000000    3552.00366211
2
Properties=species:S:1:pos:R:3:forces:R:3 energy=-11924.532767449537 pbc="F F F"
Tm       0.00000000       0.00000000       0.00000000       0.00000000       0.00000000    3705.02758789
Tm       0.00000000       0.00000000       0.47393939       0.00000000       0.00000000   -3705.02758789
2
Properties=species:S:1:pos:R:3:forces:R:3 energy=-11448.710501811865 pbc="F F F"
Tm       0.00000000       0.00000000       0.00000000       0.00000000       0.00000000   12997.92480469
Tm       0.00000000       0.00000000       0.53272727       0.00000000       0.00000000  -12997.92480469
2
Properties=species:S:1:pos:R:3:forces:R:3 energy=-10252.37554083635 pbc="F F F"
Tm       0.00000000       0.00000000       0.00000000       0.00000000       0.00000000   60124.89062500
Tm       0.00000000       0.00000000       0.59151515       0.00000000       0.00000000  -60124.89062500
2
Properties=species:S:1:pos:R:3:forces:R:3 energy=-6735.666068142087 pbc="F F F"
Tm       0.00000000       0.00000000       0.00000000       0.00000000       0.00000000   57757.11328125
Tm       0.00000000       0.00000000       0.65030303       0.00000000       0.00000000  -57757.11328125
2
Properties=species:S:1:pos:R:3:forces:R:3 energy=-3690.3701696285593 pbc="F F F"
Tm       0.00000000       0.00000000       0.00000000       0.00000000       0.00000000   45088.42187500
Tm       0.00000000       0.00000000       0.70909091       0.00000000       0.00000000  -45088.42187500
2
Properties=species:S:1:pos:R:3:forces:R:3 energy=-1539.0470494100018 pbc="F F F"
Tm       0.00000000       0.00000000       0.00000000       0.00000000       0.00000000   27733.63281250
Tm       0.00000000       0.00000000       0.76787879       0.00000000       0.00000000  -27733.63281250
2
Properties=species:S:1:pos:R:3:forces:R:3 energy=-395.61519500989937 pbc="F F F"
Tm       0.00000000       0.00000000       0.00000000       0.00000000       0.00000000   12034.61230469
Tm       0.00000000       0.00000000       0.82666667       0.00000000       0.00000000  -12034.61230469
2
Properties=species:S:1:pos:R:3:forces:R:3 energy=0.8134345569251241 pbc="F F F"
Tm       0.00000000       0.00000000       0.00000000       0.00000000       0.00000000    2941.23876953
Tm       0.00000000       0.00000000       0.88545455       0.00000000       0.00000000   -2941.23876953
2
Properties=species:S:1:pos:R:3:forces:R:3 energy=90.24069388899396 pbc="F F F"
Tm       0.00000000       0.00000000       0.00000000       0.00000000       0.00000000     828.89465332
Tm       0.00000000       0.00000000       0.94424242       0.00000000       0.00000000    -828.89465332
2
Properties=species:S:1:pos:R:3:forces:R:3 energy=109.20047215184903 pbc="F F F"
Tm       0.00000000       0.00000000       0.00000000       0.00000000       0.00000000     -38.58652878
Tm       0.00000000       0.00000000       1.00303030       0.00000000       0.00000000      38.58652878
2
Properties=species:S:1:pos:R:3:forces:R:3 energy=101.16211976841971 pbc="F F F"
Tm       0.00000000       0.00000000       0.00000000       0.00000000       0.00000000    -161.27580261
Tm       0.00000000       0.00000000       1.06181818       0.00000000       0.00000000     161.27580261
2
Properties=species:S:1:pos:R:3:forces:R:3 energy=91.07996722105581 pbc="F F F"
Tm       0.00000000       0.00000000       0.00000000       0.00000000       0.00000000    -217.80653381
Tm       0.00000000       0.00000000       1.12060606       0.00000000       0.00000000     217.80653381
2
Properties=species:S:1:pos:R:3:forces:R:3 energy=78.36121060536438 pbc="F F F"
Tm       0.00000000       0.00000000       0.00000000       0.00000000       0.00000000    -211.46452332
Tm       0.00000000       0.00000000       1.17939394       0.00000000       0.00000000     211.46452332
2
Properties=species:S:1:pos:R:3:forces:R:3 energy=66.40155614878834 pbc="F F F"
Tm       0.00000000       0.00000000       0.00000000       0.00000000       0.00000000    -195.45275879
Tm       0.00000000       0.00000000       1.23818182       0.00000000       0.00000000     195.45275879
2
Properties=species:S:1:pos:R:3:forces:R:3 energy=55.38023747838086 pbc="F F F"
Tm       0.00000000       0.00000000       0.00000000       0.00000000       0.00000000    -178.84794617
Tm       0.00000000       0.00000000       1.29696970       0.00000000       0.00000000     178.84794617
2
Properties=species:S:1:pos:R:3:forces:R:3 energy=45.43945894216633 pbc="F F F"
Tm       0.00000000       0.00000000       0.00000000       0.00000000       0.00000000    -159.23744202
Tm       0.00000000       0.00000000       1.35575758       0.00000000       0.00000000     159.23744202
2
Properties=species:S:1:pos:R:3:forces:R:3 energy=36.67981039371232 pbc="F F F"
Tm       0.00000000       0.00000000       0.00000000       0.00000000       0.00000000    -137.99862671
Tm       0.00000000       0.00000000       1.41454545       0.00000000       0.00000000     137.99862671
2
Properties=species:S:1:pos:R:3:forces:R:3 energy=29.34270889088408 pbc="F F F"
Tm       0.00000000       0.00000000       0.00000000       0.00000000       0.00000000    -110.90348816
Tm       0.00000000       0.00000000       1.47333333       0.00000000       0.00000000     110.90348816
2
Properties=species:S:1:pos:R:3:forces:R:3 energy=23.606136840031585 pbc="F F F"
Tm       0.00000000       0.00000000       0.00000000       0.00000000       0.00000000     -85.39643097
Tm       0.00000000       0.00000000       1.53212121       0.00000000       0.00000000      85.39643097
2
Properties=species:S:1:pos:R:3:forces:R:3 energy=19.138402676609527 pbc="F F F"
Tm       0.00000000       0.00000000       0.00000000       0.00000000       0.00000000     -67.92761230
Tm       0.00000000       0.00000000       1.59090909       0.00000000       0.00000000      67.92761230
2
Properties=species:S:1:pos:R:3:forces:R:3 energy=15.494051955200222 pbc="F F F"
Tm       0.00000000       0.00000000       0.00000000       0.00000000       0.00000000     -56.84641647
Tm       0.00000000       0.00000000       1.64969697       0.00000000       0.00000000      56.84641647
2
Properties=species:S:1:pos:R:3:forces:R:3 energy=12.390430078262355 pbc="F F F"
Tm       0.00000000       0.00000000       0.00000000       0.00000000       0.00000000     -49.07040024
Tm       0.00000000       0.00000000       1.70848485       0.00000000       0.00000000      49.07040024
2
Properties=species:S:1:pos:R:3:forces:R:3 energy=9.704329227919649 pbc="F F F"
Tm       0.00000000       0.00000000       0.00000000       0.00000000       0.00000000     -42.38112640
Tm       0.00000000       0.00000000       1.76727273       0.00000000       0.00000000      42.38112640
2
Properties=species:S:1:pos:R:3:forces:R:3 energy=7.402584177390797 pbc="F F F"
Tm       0.00000000       0.00000000       0.00000000       0.00000000       0.00000000     -35.97249985
Tm       0.00000000       0.00000000       1.82606061       0.00000000       0.00000000      35.97249985
2
Properties=species:S:1:pos:R:3:forces:R:3 energy=5.466527469523787 pbc="F F F"
Tm       0.00000000       0.00000000       0.00000000       0.00000000       0.00000000     -29.98455048
Tm       0.00000000       0.00000000       1.88484848       0.00000000       0.00000000      29.98455048
2
Properties=species:S:1:pos:R:3:forces:R:3 energy=3.8653705099615285 pbc="F F F"
Tm       0.00000000       0.00000000       0.00000000       0.00000000       0.00000000     -24.59000587
Tm       0.00000000       0.00000000       1.94363636       0.00000000       0.00000000      24.59000587
2
Properties=species:S:1:pos:R:3:forces:R:3 energy=2.5637091970879684 pbc="F F F"
Tm       0.00000000       0.00000000       0.00000000       0.00000000       0.00000000     -19.78930092
Tm       0.00000000       0.00000000       2.00242424       0.00000000       0.00000000      19.78930092
2
Properties=species:S:1:pos:R:3:forces:R:3 energy=1.5273646623650567 pbc="F F F"
Tm       0.00000000       0.00000000       0.00000000       0.00000000       0.00000000     -15.56589985
Tm       0.00000000       0.00000000       2.06121212       0.00000000       0.00000000      15.56589985
2
Properties=species:S:1:pos:R:3:forces:R:3 energy=0.7212692165436513 pbc="F F F"
Tm       0.00000000       0.00000000       0.00000000       0.00000000       0.00000000     -11.96992016
Tm       0.00000000       0.00000000       2.12000000       0.00000000       0.00000000      11.96992016
2
Properties=species:S:1:pos:R:3:forces:R:3 energy=0.10607536914631226 pbc="F F F"
Tm       0.00000000       0.00000000       0.00000000       0.00000000       0.00000000      -9.08136368
Tm       0.00000000       0.00000000       2.17878788       0.00000000       0.00000000       9.08136368
2
Properties=species:S:1:pos:R:3:forces:R:3 energy=-0.3605738900145338 pbc="F F F"
Tm       0.00000000       0.00000000       0.00000000       0.00000000       0.00000000      -6.90815306
Tm       0.00000000       0.00000000       2.23757576       0.00000000       0.00000000       6.90815306
2
Properties=species:S:1:pos:R:3:forces:R:3 energy=-0.7183540266821505 pbc="F F F"
Tm       0.00000000       0.00000000       0.00000000       0.00000000       0.00000000      -5.35617256
Tm       0.00000000       0.00000000       2.29636364       0.00000000       0.00000000       5.35617256
2
Properties=species:S:1:pos:R:3:forces:R:3 energy=-0.9998140649806567 pbc="F F F"
Tm       0.00000000       0.00000000       0.00000000       0.00000000       0.00000000      -4.28838921
Tm       0.00000000       0.00000000       2.35515152       0.00000000       0.00000000       4.28838921
2
Properties=species:S:1:pos:R:3:forces:R:3 energy=-1.229355023408221 pbc="F F F"
Tm       0.00000000       0.00000000       0.00000000       0.00000000       0.00000000      -3.56741166
Tm       0.00000000       0.00000000       2.41393939       0.00000000       0.00000000       3.56741166
2
Properties=species:S:1:pos:R:3:forces:R:3 energy=-1.4235320470296298 pbc="F F F"
Tm       0.00000000       0.00000000       0.00000000       0.00000000       0.00000000      -3.06545925
Tm       0.00000000       0.00000000       2.47272727       0.00000000       0.00000000       3.06545925
2
Properties=species:S:1:pos:R:3:forces:R:3 energy=-1.5920109376479508 pbc="F F F"
Tm       0.00000000       0.00000000       0.00000000       0.00000000       0.00000000      -2.67888689
Tm       0.00000000       0.00000000       2.53151515       0.00000000       0.00000000       2.67888689
2
Properties=species:S:1:pos:R:3:forces:R:3 energy=-1.7394543010227865 pbc="F F F"
Tm       0.00000000       0.00000000       0.00000000       0.00000000       0.00000000      -2.34201217
Tm       0.00000000       0.00000000       2.59030303       0.00000000       0.00000000       2.34201217
2
Properties=species:S:1:pos:R:3:forces:R:3 energy=-1.8677242022558807 pbc="F F F"
Tm       0.00000000       0.00000000       0.00000000       0.00000000       0.00000000      -2.02345204
Tm       0.00000000       0.00000000       2.64909091       0.00000000       0.00000000       2.02345204
2
Properties=species:S:1:pos:R:3:forces:R:3 energy=-1.9774998611929 pbc="F F F"
Tm       0.00000000       0.00000000       0.00000000       0.00000000       0.00000000      -1.71206284
Tm       0.00000000       0.00000000       2.70787879       0.00000000       0.00000000       1.71206284
2
Properties=species:S:1:pos:R:3:forces:R:3 energy=-2.0691089546523176 pbc="F F F"
Tm       0.00000000       0.00000000       0.00000000       0.00000000       0.00000000      -1.40533638
Tm       0.00000000       0.00000000       2.76666667       0.00000000       0.00000000       1.40533638
2
Properties=species:S:1:pos:R:3:forces:R:3 energy=-2.1428356912434796 pbc="F F F"
Tm       0.00000000       0.00000000       0.00000000       0.00000000       0.00000000      -1.10393858
Tm       0.00000000       0.00000000       2.82545455       0.00000000       0.00000000       1.10393858
2
Properties=species:S:1:pos:R:3:forces:R:3 energy=-2.1990514267340853 pbc="F F F"
Tm       0.00000000       0.00000000       0.00000000       0.00000000       0.00000000      -0.81001091
Tm       0.00000000       0.00000000       2.88424242       0.00000000       0.00000000       0.81001091
2
Properties=species:S:1:pos:R:3:forces:R:3 energy=-2.2382801047824588 pbc="F F F"
Tm       0.00000000       0.00000000       0.00000000       0.00000000       0.00000000      -0.52665055
Tm       0.00000000       0.00000000       2.94303030       0.00000000       0.00000000       0.52665055
2
Properties=species:S:1:pos:R:3:forces:R:3 energy=-2.2612516857059415 pbc="F F F"
Tm       0.00000000       0.00000000       0.00000000       0.00000000       0.00000000      -0.25758332
Tm       0.00000000       0.00000000       3.00181818       0.00000000       0.00000000       0.25758332
2
Properties=species:S:1:pos:R:3:forces:R:3 energy=-2.268927357829737 pbc="F F F"
Tm       0.00000000       0.00000000       0.00000000       0.00000000       0.00000000      -0.00696356
Tm       0.00000000       0.00000000       3.06060606       0.00000000       0.00000000       0.00696356
2
Properties=species:S:1:pos:R:3:forces:R:3 energy=-2.2625173745308347 pbc="F F F"
Tm       0.00000000       0.00000000       0.00000000       0.00000000       0.00000000       0.22089826
Tm       0.00000000       0.00000000       3.11939394       0.00000000       0.00000000      -0.22089826
2
Properties=species:S:1:pos:R:3:forces:R:3 energy=-2.2434764419216306 pbc="F F F"
Tm       0.00000000       0.00000000       0.00000000       0.00000000       0.00000000       0.42216006
Tm       0.00000000       0.00000000       3.17818182       0.00000000       0.00000000      -0.42216006
2
Properties=species:S:1:pos:R:3:forces:R:3 energy=-2.213456632348506 pbc="F F F"
Tm       0.00000000       0.00000000       0.00000000       0.00000000       0.00000000       0.59414202
Tm       0.00000000       0.00000000       3.23696970       0.00000000       0.00000000      -0.59414202
2
Properties=species:S:1:pos:R:3:forces:R:3 energy=-2.1742125611535292 pbc="F F F"
Tm       0.00000000       0.00000000       0.00000000       0.00000000       0.00000000       0.73597962
Tm       0.00000000       0.00000000       3.29575758       0.00000000       0.00000000      -0.73597962
2
Properties=species:S:1:pos:R:3:forces:R:3 energy=-2.1274931406398037 pbc="F F F"
Tm       0.00000000       0.00000000       0.00000000       0.00000000       0.00000000       0.84878278
Tm       0.00000000       0.00000000       3.35454545       0.00000000       0.00000000      -0.84878278
2
Properties=species:S:1:pos:R:3:forces:R:3 energy=-2.0749323883619777 pbc="F F F"
Tm       0.00000000       0.00000000       0.00000000       0.00000000       0.00000000       0.93524605
Tm       0.00000000       0.00000000       3.41333333       0.00000000       0.00000000      -0.93524605
2
Properties=species:S:1:pos:R:3:forces:R:3 energy=-2.0179800179774112 pbc="F F F"
Tm       0.00000000       0.00000000       0.00000000       0.00000000       0.00000000       0.99880880
Tm       0.00000000       0.00000000       3.47212121       0.00000000       0.00000000      -0.99880880
2
Properties=species:S:1:pos:R:3:forces:R:3 energy=-1.9578808782275714 pbc="F F F"
Tm       0.00000000       0.00000000       0.00000000       0.00000000       0.00000000       1.04280007
Tm       0.00000000       0.00000000       3.53090909       0.00000000       0.00000000      -1.04280007
2
Properties=species:S:1:pos:R:3:forces:R:3 energy=-1.895701567119875 pbc="F F F"
Tm       0.00000000       0.00000000       0.00000000       0.00000000       0.00000000       1.06993043
Tm       0.00000000       0.00000000       3.58969697       0.00000000       0.00000000      -1.06993043
2
Properties=species:S:1:pos:R:3:forces:R:3 energy=-1.832372621680802 pbc="F F F"
Tm       0.00000000       0.00000000       0.00000000       0.00000000       0.00000000       1.08222032
Tm       0.00000000       0.00000000       3.64848485       0.00000000       0.00000000      -1.08222032
2
Properties=species:S:1:pos:R:3:forces:R:3 energy=-1.76871828626416 pbc="F F F"
Tm       0.00000000       0.00000000       0.00000000       0.00000000       0.00000000       1.08126616
Tm       0.00000000       0.00000000       3.70727273       0.00000000       0.00000000      -1.08126616
2
Properties=species:S:1:pos:R:3:forces:R:3 energy=-1.7054718180255592 pbc="F F F"
Tm       0.00000000       0.00000000       0.00000000       0.00000000       0.00000000       1.06858826
Tm       0.00000000       0.00000000       3.76606061       0.00000000       0.00000000      -1.06858826
2
Properties=species:S:1:pos:R:3:forces:R:3 energy=-1.6432738536703217 pbc="F F F"
Tm       0.00000000       0.00000000       0.00000000       0.00000000       0.00000000       1.04591680
Tm       0.00000000       0.00000000       3.82484848       0.00000000       0.00000000      -1.04591680
2
Properties=species:S:1:pos:R:3:forces:R:3 energy=-1.5826534880226155 pbc="F F F"
Tm       0.00000000       0.00000000       0.00000000       0.00000000       0.00000000       1.01529253
Tm       0.00000000       0.00000000       3.88363636       0.00000000       0.00000000      -1.01529253
2
Properties=species:S:1:pos:R:3:forces:R:3 energy=-1.524010624714957 pbc="F F F"
Tm       0.00000000       0.00000000       0.00000000       0.00000000       0.00000000       0.97904986
Tm       0.00000000       0.00000000       3.94242424       0.00000000       0.00000000      -0.97904986
2
Properties=species:S:1:pos:R:3:forces:R:3 energy=-1.4676050279405053 pbc="F F F"
Tm       0.00000000       0.00000000       0.00000000       0.00000000       0.00000000       0.93958306
Tm       0.00000000       0.00000000       4.00121212       0.00000000       0.00000000      -0.93958306
2
Properties=species:S:1:pos:R:3:forces:R:3 energy=-1.413558274151205 pbc="F F F"
Tm       0.00000000       0.00000000       0.00000000       0.00000000       0.00000000       0.89909714
Tm       0.00000000       0.00000000       4.06000000       0.00000000       0.00000000      -0.89909714
2
Properties=species:S:1:pos:R:3:forces:R:3 energy=-1.3618778576768529 pbc="F F F"
Tm       0.00000000       0.00000000       0.00000000       0.00000000       0.00000000       0.85933578
Tm       0.00000000       0.00000000       4.11878788       0.00000000       0.00000000      -0.85933578
2
Properties=species:S:1:pos:R:3:forces:R:3 energy=-1.3124839379554671 pbc="F F F"
Tm       0.00000000       0.00000000       0.00000000       0.00000000       0.00000000       0.82144266
Tm       0.00000000       0.00000000       4.17757576       0.00000000       0.00000000      -0.82144266
2
Properties=species:S:1:pos:R:3:forces:R:3 energy=-1.2652480140282558 pbc="F F F"
Tm       0.00000000       0.00000000       0.00000000       0.00000000       0.00000000       0.78595084
Tm       0.00000000       0.00000000       4.23636364       0.00000000       0.00000000      -0.78595084
2
Properties=species:S:1:pos:R:3:forces:R:3 energy=-1.220026177595758 pbc="F F F"
Tm       0.00000000       0.00000000       0.00000000       0.00000000       0.00000000       0.75288868
Tm       0.00000000       0.00000000       4.29515152       0.00000000       0.00000000      -0.75288868
2
Properties=species:S:1:pos:R:3:forces:R:3 energy=-1.1766856229975853 pbc="F F F"
Tm       0.00000000       0.00000000       0.00000000       0.00000000       0.00000000       0.72195375
Tm       0.00000000       0.00000000       4.35393939       0.00000000       0.00000000      -0.72195375
2
Properties=species:S:1:pos:R:3:forces:R:3 energy=-1.1351109768081058 pbc="F F F"
Tm       0.00000000       0.00000000       0.00000000       0.00000000       0.00000000       0.69267130
Tm       0.00000000       0.00000000       4.41272727       0.00000000       0.00000000      -0.69267130
2
Properties=species:S:1:pos:R:3:forces:R:3 energy=-1.0952210821716442 pbc="F F F"
Tm       0.00000000       0.00000000       0.00000000       0.00000000       0.00000000       0.66455466
Tm       0.00000000       0.00000000       4.47151515       0.00000000       0.00000000      -0.66455466
2
Properties=species:S:1:pos:R:3:forces:R:3 energy=-1.0569598398620725 pbc="F F F"
Tm       0.00000000       0.00000000       0.00000000       0.00000000       0.00000000       0.63719261
Tm       0.00000000       0.00000000       4.53030303       0.00000000       0.00000000      -0.63719261
2
Properties=species:S:1:pos:R:3:forces:R:3 energy=-1.020294205899512 pbc="F F F"
Tm       0.00000000       0.00000000       0.00000000       0.00000000       0.00000000       0.61027169
Tm       0.00000000       0.00000000       4.58909091       0.00000000       0.00000000      -0.61027169
2
Properties=species:S:1:pos:R:3:forces:R:3 energy=-0.9852034322040047 pbc="F F F"
Tm       0.00000000       0.00000000       0.00000000       0.00000000       0.00000000       0.58357155
Tm       0.00000000       0.00000000       4.64787879       0.00000000       0.00000000      -0.58357155
2
Properties=species:S:1:pos:R:3:forces:R:3 energy=-0.9516788382643766 pbc="F F F"
Tm       0.00000000       0.00000000       0.00000000       0.00000000       0.00000000       0.55691707
Tm       0.00000000       0.00000000       4.70666667       0.00000000       0.00000000      -0.55691707
2
Properties=species:S:1:pos:R:3:forces:R:3 energy=-0.9197247483894673 pbc="F F F"
Tm       0.00000000       0.00000000       0.00000000       0.00000000       0.00000000       0.53017199
Tm       0.00000000       0.00000000       4.76545455       0.00000000       0.00000000      -0.53017199
2
Properties=species:S:1:pos:R:3:forces:R:3 energy=-0.8893462865951918 pbc="F F F"
Tm       0.00000000       0.00000000       0.00000000       0.00000000       0.00000000       0.50325900
Tm       0.00000000       0.00000000       4.82424242       0.00000000       0.00000000      -0.50325900
2
Properties=species:S:1:pos:R:3:forces:R:3 energy=-0.8605575323534319 pbc="F F F"
Tm       0.00000000       0.00000000       0.00000000       0.00000000       0.00000000       0.47624579
Tm       0.00000000       0.00000000       4.88303030       0.00000000       0.00000000      -0.47624579
2
Properties=species:S:1:pos:R:3:forces:R:3 energy=-0.8333470374291352 pbc="F F F"
Tm       0.00000000       0.00000000       0.00000000       0.00000000       0.00000000       0.44950065
Tm       0.00000000       0.00000000       4.94181818       0.00000000       0.00000000      -0.44950065
2
Properties=species:S:1:pos:R:3:forces:R:3 energy=-0.8076854273484224 pbc="F F F"
Tm       0.00000000       0.00000000       0.00000000       0.00000000       0.00000000       0.42373663
Tm       0.00000000       0.00000000       5.00060606       0.00000000       0.00000000      -0.42373663
2
Properties=species:S:1:pos:R:3:forces:R:3 energy=-0.7834862474826146 pbc="F F F"
Tm       0.00000000       0.00000000       0.00000000       0.00000000       0.00000000       0.39995149
Tm       0.00000000       0.00000000       5.05939394       0.00000000       0.00000000      -0.39995149
2
Properties=species:S:1:pos:R:3:forces:R:3 energy=-0.7606027178868859 pbc="F F F"
Tm       0.00000000       0.00000000       0.00000000       0.00000000       0.00000000       0.37910289
Tm       0.00000000       0.00000000       5.11818182       0.00000000       0.00000000      -0.37910289
2
Properties=species:S:1:pos:R:3:forces:R:3 energy=-0.7388496614738966 pbc="F F F"
Tm       0.00000000       0.00000000       0.00000000       0.00000000       0.00000000       0.36150092
Tm       0.00000000       0.00000000       5.17696970       0.00000000       0.00000000      -0.36150092
2
Properties=species:S:1:pos:R:3:forces:R:3 energy=-0.7180592749543702 pbc="F F F"
Tm       0.00000000       0.00000000       0.00000000       0.00000000       0.00000000       0.34596336
Tm       0.00000000       0.00000000       5.23575758       0.00000000       0.00000000      -0.34596336
2
Properties=species:S:1:pos:R:3:forces:R:3 energy=-0.698197535540387 pbc="F F F"
Tm       0.00000000       0.00000000       0.00000000       0.00000000       0.00000000       0.32919210
Tm       0.00000000       0.00000000       5.29454545       0.00000000       0.00000000      -0.32919210
2
Properties=species:S:1:pos:R:3:forces:R:3 energy=-0.6794547493202894 pbc="F F F"
Tm       0.00000000       0.00000000       0.00000000       0.00000000       0.00000000       0.30744979
Tm       0.00000000       0.00000000       5.35333333       0.00000000       0.00000000      -0.30744979
2
Properties=species:S:1:pos:R:3:forces:R:3 energy=-0.6620993272258063 pbc="F F F"
Tm       0.00000000       0.00000000       0.00000000       0.00000000       0.00000000       0.28344733
Tm       0.00000000       0.00000000       5.41212121       0.00000000       0.00000000      -0.28344733
2
Properties=species:S:1:pos:R:3:forces:R:3 energy=-0.6459380776449012 pbc="F F F"
Tm       0.00000000       0.00000000       0.00000000       0.00000000       0.00000000       0.26862887
Tm       0.00000000       0.00000000       5.47090909       0.00000000       0.00000000      -0.26862887
2
Properties=species:S:1:pos:R:3:forces:R:3 energy=-0.6303599513112862 pbc="F F F"
Tm       0.00000000       0.00000000       0.00000000       0.00000000       0.00000000       0.26082340
Tm       0.00000000       0.00000000       5.52969697       0.00000000       0.00000000      -0.26082340
2
Properties=species:S:1:pos:R:3:forces:R:3 energy=-0.6155296332355406 pbc="F F F"
Tm       0.00000000       0.00000000       0.00000000       0.00000000       0.00000000       0.24088582
Tm       0.00000000       0.00000000       5.58848485       0.00000000       0.00000000      -0.24088582
2
Properties=species:S:1:pos:R:3:forces:R:3 energy=-0.6022567231811169 pbc="F F F"
Tm       0.00000000       0.00000000       0.00000000       0.00000000       0.00000000       0.21058258
Tm       0.00000000       0.00000000       5.64727273       0.00000000       0.00000000      -0.21058258
2
Properties=species:S:1:pos:R:3:forces:R:3 energy=-0.5904892576099603 pbc="F F F"
Tm       0.00000000       0.00000000       0.00000000       0.00000000       0.00000000       0.19472189
Tm       0.00000000       0.00000000       5.70606061       0.00000000       0.00000000      -0.19472189
2
Properties=species:S:1:pos:R:3:forces:R:3 energy=-0.5787107364246723 pbc="F F F"
Tm       0.00000000       0.00000000       0.00000000       0.00000000       0.00000000       0.20862201
Tm       0.00000000       0.00000000       5.76484848       0.00000000       0.00000000      -0.20862201
2
Properties=species:S:1:pos:R:3:forces:R:3 energy=-0.5662579256083332 pbc="F F F"
Tm       0.00000000       0.00000000       0.00000000       0.00000000       0.00000000       0.20706655
Tm       0.00000000       0.00000000       5.82363636       0.00000000       0.00000000      -0.20706655
2
Properties=species:S:1:pos:R:3:forces:R:3 energy=-0.5556583043024657 pbc="F F F"
Tm       0.00000000       0.00000000       0.00000000       0.00000000       0.00000000       0.14522496
Tm       0.00000000       0.00000000       5.88242424       0.00000000       0.00000000      -0.14522496
2
Properties=species:S:1:pos:R:3:forces:R:3 energy=-0.5495372152196587 pbc="F F F"
Tm       0.00000000       0.00000000       0.00000000       0.00000000       0.00000000       0.06538720
Tm       0.00000000       0.00000000       5.94121212       0.00000000       0.00000000      -0.06538720
2
Properties=species:S:1:pos:R:3:forces:R:3 energy=-0.5470303676125388 pbc="F F F"
Tm       0.00000000       0.00000000       0.00000000       0.00000000       0.00000000       0.03099215
Tm       0.00000000       0.00000000       6.00000000       0.00000000       0.00000000      -0.03099215
