2
Properties=species:S:1:pos:R:3:forces:R:3 energy=25297.15543121477 pbc="F F F"
U        0.00000000       0.00000000       0.00000000       0.00000000       0.00000000 -357314.40625000
U        0.00000000       0.00000000       0.18000000       0.00000000       0.00000000  357314.40625000
2
Properties=species:S:1:pos:R:3:forces:R:3 energy=12920.166173402271 pbc="F F F"
U        0.00000000       0.00000000       0.00000000       0.00000000       0.00000000 -115837.13281250
U        0.00000000       0.00000000       0.23878788       0.00000000       0.00000000  115837.13281250
2
Properties=species:S:1:pos:R:3:forces:R:3 energy=8565.385899964771 pbc="F F F"
U        0.00000000       0.00000000       0.00000000       0.00000000       0.00000000  -45277.50781250
U        0.00000000       0.00000000       0.29757576       0.00000000       0.00000000   45277.50781250
2
Properties=species:S:1:pos:R:3:forces:R:3 energy=6725.008946839772 pbc="F F F"
U        0.00000000       0.00000000       0.00000000       0.00000000       0.00000000  -21459.20312500
U        0.00000000       0.00000000       0.35636364       0.00000000       0.00000000   21459.20312500
2
Properties=species:S:1:pos:R:3:forces:R:3 energy=5741.803868714772 pbc="F F F"
U        0.00000000       0.00000000       0.00000000       0.00000000       0.00000000  -13538.70898438
U        0.00000000       0.00000000       0.41515152       0.00000000       0.00000000   13538.70898438
2
Properties=species:S:1:pos:R:3:forces:R:3 energy=5014.596349183522 pbc="F F F"
U        0.00000000       0.00000000       0.00000000       0.00000000       0.00000000  -11839.01562500
U        0.00000000       0.00000000       0.47393939       0.00000000       0.00000000   11839.01562500
2
Properties=species:S:1:pos:R:3:forces:R:3 energy=4316.180333583864 pbc="F F F"
U        0.00000000       0.00000000       0.00000000       0.00000000       0.00000000  -11189.34375000
U        0.00000000       0.00000000       0.53272727       0.00000000       0.00000000   11189.34375000
2
Properties=species:S:1:pos:R:3:forces:R:3 energy=3611.8280386873316 pbc="F F F"
U        0.00000000       0.00000000       0.00000000       0.00000000       0.00000000  -12721.51074219
U        0.00000000       0.00000000       0.59151515       0.00000000       0.00000000   12721.51074219
2
Properties=species:S:1:pos:R:3:forces:R:3 energy=2828.088536772221 pbc="F F F"
U        0.00000000       0.00000000       0.00000000       0.00000000       0.00000000  -13796.10644531
U        0.00000000       0.00000000       0.65030303       0.00000000       0.00000000   13796.10644531
2
Properties=species:S:1:pos:R:3:forces:R:3 energy=2014.9289909371396 pbc="F F F"
U        0.00000000       0.00000000       0.00000000       0.00000000       0.00000000  -13601.83691406
U        0.00000000       0.00000000       0.70909091       0.00000000       0.00000000   13601.83691406
2
Properties=species:S:1:pos:R:3:forces:R:3 energy=1262.61649103851 pbc="F F F"
U        0.00000000       0.00000000       0.00000000       0.00000000       0.00000000  -11711.10156250
U        0.00000000       0.00000000       0.76787879       0.00000000       0.00000000   11711.10156250
2
Properties=species:S:1:pos:R:3:forces:R:3 energy=610.4935053507216 pbc="F F F"
U        0.00000000       0.00000000       0.00000000       0.00000000       0.00000000   -8914.96679688
U        0.00000000       0.00000000       0.82666667       0.00000000       0.00000000    8914.96679688
2
Properties=species:S:1:pos:R:3:forces:R:3 energy=231.6024685788289 pbc="F F F"
U        0.00000000       0.00000000       0.00000000       0.00000000       0.00000000   -3421.07885742
U        0.00000000       0.00000000       0.88545455       0.00000000       0.00000000    3421.07885742
2
Properties=species:S:1:pos:R:3:forces:R:3 energy=132.56717529116696 pbc="F F F"
U        0.00000000       0.00000000       0.00000000       0.00000000       0.00000000    -455.93911743
U        0.00000000       0.00000000       0.94424242       0.00000000       0.00000000     455.93911743
2
Properties=species:S:1:pos:R:3:forces:R:3 energy=123.05148203209743 pbc="F F F"
U        0.00000000       0.00000000       0.00000000       0.00000000       0.00000000     130.05482483
U        0.00000000       0.00000000       1.00303030       0.00000000       0.00000000    -130.05482483
2
Properties=species:S:1:pos:R:3:forces:R:3 energy=131.16059054815423 pbc="F F F"
U        0.00000000       0.00000000       0.00000000       0.00000000       0.00000000      98.14453125
U        0.00000000       0.00000000       1.06181818       0.00000000       0.00000000     -98.14453125
2
Properties=species:S:1:pos:R:3:forces:R:3 energy=129.88506331631612 pbc="F F F"
U        0.00000000       0.00000000       0.00000000       0.00000000       0.00000000    -189.11369324
U        0.00000000       0.00000000       1.12060606       0.00000000       0.00000000     189.11369324
2
Properties=species:S:1:pos:R:3:forces:R:3 energy=111.50132862259578 pbc="F F F"
U        0.00000000       0.00000000       0.00000000       0.00000000       0.00000000    -345.56600952
U        0.00000000       0.00000000       1.17939394       0.00000000       0.00000000     345.56600952
2
Properties=species:S:1:pos:R:3:forces:R:3 energy=92.13646170031956 pbc="F F F"
U        0.00000000       0.00000000       0.00000000       0.00000000       0.00000000    -301.52340698
U        0.00000000       0.00000000       1.23818182       0.00000000       0.00000000     301.52340698
2
Properties=species:S:1:pos:R:3:forces:R:3 energy=76.3918953877943 pbc="F F F"
U        0.00000000       0.00000000       0.00000000       0.00000000       0.00000000    -241.20259094
U        0.00000000       0.00000000       1.29696970       0.00000000       0.00000000     241.20259094
2
Properties=species:S:1:pos:R:3:forces:R:3 energy=62.8572980729874 pbc="F F F"
U        0.00000000       0.00000000       0.00000000       0.00000000       0.00000000    -223.47238159
U        0.00000000       0.00000000       1.35575758       0.00000000       0.00000000     223.47238159
2
Properties=species:S:1:pos:R:3:forces:R:3 energy=50.004181672746874 pbc="F F F"
U        0.00000000       0.00000000       0.00000000       0.00000000       0.00000000    -213.24772644
U        0.00000000       0.00000000       1.41454545       0.00000000       0.00000000     213.24772644
2
Properties=species:S:1:pos:R:3:forces:R:3 energy=37.87253193251004 pbc="F F F"
U        0.00000000       0.00000000       0.00000000       0.00000000       0.00000000    -198.59698486
U        0.00000000       0.00000000       1.47333333       0.00000000       0.00000000     198.59698486
2
Properties=species:S:1:pos:R:3:forces:R:3 energy=26.781747858994667 pbc="F F F"
U        0.00000000       0.00000000       0.00000000       0.00000000       0.00000000    -177.55519104
U        0.00000000       0.00000000       1.53212121       0.00000000       0.00000000     177.55519104
2
Properties=species:S:1:pos:R:3:forces:R:3 energy=17.098294193781797 pbc="F F F"
U        0.00000000       0.00000000       0.00000000       0.00000000       0.00000000    -151.47503662
U        0.00000000       0.00000000       1.59090909       0.00000000       0.00000000     151.47503662
2
Properties=species:S:1:pos:R:3:forces:R:3 energy=8.974932535606198 pbc="F F F"
U        0.00000000       0.00000000       0.00000000       0.00000000       0.00000000    -125.07228088
U        0.00000000       0.00000000       1.64969697       0.00000000       0.00000000     125.07228088
2
Properties=species:S:1:pos:R:3:forces:R:3 energy=2.365143795057213 pbc="F F F"
U        0.00000000       0.00000000       0.00000000       0.00000000       0.00000000    -100.07052612
U        0.00000000       0.00000000       1.70848485       0.00000000       0.00000000     100.07052612
2
Properties=species:S:1:pos:R:3:forces:R:3 energy=-2.8308104356656987 pbc="F F F"
U        0.00000000       0.00000000       0.00000000       0.00000000       0.00000000     -77.10841370
U        0.00000000       0.00000000       1.76727273       0.00000000       0.00000000      77.10841370
2
Properties=species:S:1:pos:R:3:forces:R:3 energy=-6.755741239520994 pbc="F F F"
U        0.00000000       0.00000000       0.00000000       0.00000000       0.00000000     -56.93282700
U        0.00000000       0.00000000       1.82606061       0.00000000       0.00000000      56.93282700
2
Properties=species:S:1:pos:R:3:forces:R:3 energy=-9.589961009268592 pbc="F F F"
U        0.00000000       0.00000000       0.00000000       0.00000000       0.00000000     -40.09222031
U        0.00000000       0.00000000       1.88484848       0.00000000       0.00000000      40.09222031
2
Properties=species:S:1:pos:R:3:forces:R:3 energy=-11.545113161971445 pbc="F F F"
U        0.00000000       0.00000000       0.00000000       0.00000000       0.00000000     -27.07051277
U        0.00000000       0.00000000       1.94363636       0.00000000       0.00000000      27.07051277
2
Properties=species:S:1:pos:R:3:forces:R:3 energy=-12.84211700258845 pbc="F F F"
U        0.00000000       0.00000000       0.00000000       0.00000000       0.00000000     -17.56152153
U        0.00000000       0.00000000       2.00242424       0.00000000       0.00000000      17.56152153
2
Properties=species:S:1:pos:R:3:forces:R:3 energy=-13.659622078667278 pbc="F F F"
U        0.00000000       0.00000000       0.00000000       0.00000000       0.00000000     -10.59991932
U        0.00000000       0.00000000       2.06121212       0.00000000       0.00000000      10.59991932
2
Properties=species:S:1:pos:R:3:forces:R:3 energy=-14.12310107054407 pbc="F F F"
U        0.00000000       0.00000000       0.00000000       0.00000000       0.00000000      -5.41922665
U        0.00000000       0.00000000       2.12000000       0.00000000       0.00000000       5.41922665
2
Properties=species:S:1:pos:R:3:forces:R:3 energy=-14.322724344329103 pbc="F F F"
U        0.00000000       0.00000000       0.00000000       0.00000000       0.00000000      -1.56914175
U        0.00000000       0.00000000       2.17878788       0.00000000       0.00000000       1.56914175
2
Properties=species:S:1:pos:R:3:forces:R:3 energy=-14.328996649424342 pbc="F F F"
U        0.00000000       0.00000000       0.00000000       0.00000000       0.00000000       1.18475103
U        0.00000000       0.00000000       2.23757576       0.00000000       0.00000000      -1.18475103
2
Properties=species:S:1:pos:R:3:forces:R:3 energy=-14.202616878512426 pbc="F F F"
U        0.00000000       0.00000000       0.00000000       0.00000000       0.00000000       2.95920610
U        0.00000000       0.00000000       2.29636364       0.00000000       0.00000000      -2.95920610
2
Properties=species:S:1:pos:R:3:forces:R:3 energy=-13.998158524826872 pbc="F F F"
U        0.00000000       0.00000000       0.00000000       0.00000000       0.00000000       3.86420298
U        0.00000000       0.00000000       2.35515152       0.00000000       0.00000000      -3.86420298
2
Properties=species:S:1:pos:R:3:forces:R:3 energy=-13.761786383097975 pbc="F F F"
U        0.00000000       0.00000000       0.00000000       0.00000000       0.00000000       4.08251190
U        0.00000000       0.00000000       2.41393939       0.00000000       0.00000000      -4.08251190
2
Properties=species:S:1:pos:R:3:forces:R:3 energy=-13.526796392173027 pbc="F F F"
U        0.00000000       0.00000000       0.00000000       0.00000000       0.00000000       3.85928559
U        0.00000000       0.00000000       2.47272727       0.00000000       0.00000000      -3.85928559
2
Properties=species:S:1:pos:R:3:forces:R:3 energy=-13.31205055409278 pbc="F F F"
U        0.00000000       0.00000000       0.00000000       0.00000000       0.00000000       3.42837524
U        0.00000000       0.00000000       2.53151515       0.00000000       0.00000000      -3.42837524
2
Properties=species:S:1:pos:R:3:forces:R:3 energy=-13.124366753229332 pbc="F F F"
U        0.00000000       0.00000000       0.00000000       0.00000000       0.00000000       2.96127391
U        0.00000000       0.00000000       2.59030303       0.00000000       0.00000000      -2.96127391
2
Properties=species:S:1:pos:R:3:forces:R:3 energy=-12.962540666975487 pbc="F F F"
U        0.00000000       0.00000000       0.00000000       0.00000000       0.00000000       2.56056643
U        0.00000000       0.00000000       2.64909091       0.00000000       0.00000000      -2.56056643
2
Properties=species:S:1:pos:R:3:forces:R:3 energy=-12.821029454832946 pbc="F F F"
U        0.00000000       0.00000000       0.00000000       0.00000000       0.00000000       2.27486324
U        0.00000000       0.00000000       2.70787879       0.00000000       0.00000000      -2.27486324
2
Properties=species:S:1:pos:R:3:forces:R:3 energy=-12.692538401926745 pbc="F F F"
U        0.00000000       0.00000000       0.00000000       0.00000000       0.00000000       2.11760736
U        0.00000000       0.00000000       2.76666667       0.00000000       0.00000000      -2.11760736
2
Properties=species:S:1:pos:R:3:forces:R:3 energy=-12.569772793381922 pbc="F F F"
U        0.00000000       0.00000000       0.00000000       0.00000000       0.00000000       2.07568717
U        0.00000000       0.00000000       2.82545455       0.00000000       0.00000000      -2.07568717
2
Properties=species:S:1:pos:R:3:forces:R:3 energy=-12.44693393788632 pbc="F F F"
U        0.00000000       0.00000000       0.00000000       0.00000000       0.00000000       2.11263585
U        0.00000000       0.00000000       2.88424242       0.00000000       0.00000000      -2.11263585
2
Properties=species:S:1:pos:R:3:forces:R:3 energy=-12.32079038470239 pbc="F F F"
U        0.00000000       0.00000000       0.00000000       0.00000000       0.00000000       2.17985821
U        0.00000000       0.00000000       2.94303030       0.00000000       0.00000000      -2.17985821
2
Properties=species:S:1:pos:R:3:forces:R:3 energy=-12.190908978948826 pbc="F F F"
U        0.00000000       0.00000000       0.00000000       0.00000000       0.00000000       2.23375225
U        0.00000000       0.00000000       3.00181818       0.00000000       0.00000000      -2.23375225
2
Properties=species:S:1:pos:R:3:forces:R:3 energy=-12.05894929798956 pbc="F F F"
U        0.00000000       0.00000000       0.00000000       0.00000000       0.00000000       2.24773264
U        0.00000000       0.00000000       3.06060606       0.00000000       0.00000000      -2.24773264
2
Properties=species:S:1:pos:R:3:forces:R:3 energy=-11.927573522334704 pbc="F F F"
U        0.00000000       0.00000000       0.00000000       0.00000000       0.00000000       2.21407366
U        0.00000000       0.00000000       3.11939394       0.00000000       0.00000000      -2.21407366
2
Properties=species:S:1:pos:R:3:forces:R:3 energy=-11.799453027112742 pbc="F F F"
U        0.00000000       0.00000000       0.00000000       0.00000000       0.00000000       2.13851976
U        0.00000000       0.00000000       3.17818182       0.00000000       0.00000000      -2.13851976
2
Properties=species:S:1:pos:R:3:forces:R:3 energy=-11.676720551532716 pbc="F F F"
U        0.00000000       0.00000000       0.00000000       0.00000000       0.00000000       2.03310180
U        0.00000000       0.00000000       3.23696970       0.00000000       0.00000000      -2.03310180
2
Properties=species:S:1:pos:R:3:forces:R:3 energy=-11.560738636751056 pbc="F F F"
U        0.00000000       0.00000000       0.00000000       0.00000000       0.00000000       1.91080129
U        0.00000000       0.00000000       3.29575758       0.00000000       0.00000000      -1.91080129
2
Properties=species:S:1:pos:R:3:forces:R:3 energy=-11.452164485068707 pbc="F F F"
U        0.00000000       0.00000000       0.00000000       0.00000000       0.00000000       1.78286028
U        0.00000000       0.00000000       3.35454545       0.00000000       0.00000000      -1.78286028
2
Properties=species:S:1:pos:R:3:forces:R:3 energy=-11.351059851217096 pbc="F F F"
U        0.00000000       0.00000000       0.00000000       0.00000000       0.00000000       1.65783596
U        0.00000000       0.00000000       3.41333333       0.00000000       0.00000000      -1.65783596
2
Properties=species:S:1:pos:R:3:forces:R:3 energy=-11.257073396893182 pbc="F F F"
U        0.00000000       0.00000000       0.00000000       0.00000000       0.00000000       1.54141402
U        0.00000000       0.00000000       3.47212121       0.00000000       0.00000000      -1.54141402
2
Properties=species:S:1:pos:R:3:forces:R:3 energy=-11.16960020779607 pbc="F F F"
U        0.00000000       0.00000000       0.00000000       0.00000000       0.00000000       1.43653405
U        0.00000000       0.00000000       3.53090909       0.00000000       0.00000000      -1.43653405
2
Properties=species:S:1:pos:R:3:forces:R:3 energy=-11.087933874666092 pbc="F F F"
U        0.00000000       0.00000000       0.00000000       0.00000000       0.00000000       1.34368873
U        0.00000000       0.00000000       3.58969697       0.00000000       0.00000000      -1.34368873
2
Properties=species:S:1:pos:R:3:forces:R:3 energy=-11.01140266264376 pbc="F F F"
U        0.00000000       0.00000000       0.00000000       0.00000000       0.00000000       1.26153398
U        0.00000000       0.00000000       3.64848485       0.00000000       0.00000000      -1.26153398
2
Properties=species:S:1:pos:R:3:forces:R:3 energy=-10.939444281332783 pbc="F F F"
U        0.00000000       0.00000000       0.00000000       0.00000000       0.00000000       1.18775451
U        0.00000000       0.00000000       3.70727273       0.00000000       0.00000000      -1.18775451
2
Properties=species:S:1:pos:R:3:forces:R:3 energy=-10.871634710441453 pbc="F F F"
U        0.00000000       0.00000000       0.00000000       0.00000000       0.00000000       1.11995173
U        0.00000000       0.00000000       3.76606061       0.00000000       0.00000000      -1.11995173
2
Properties=species:S:1:pos:R:3:forces:R:3 energy=-10.807684233029928 pbc="F F F"
U        0.00000000       0.00000000       0.00000000       0.00000000       0.00000000       1.05630636
U        0.00000000       0.00000000       3.82484848       0.00000000       0.00000000      -1.05630636
2
Properties=species:S:1:pos:R:3:forces:R:3 energy=-10.747376641108463 pbc="F F F"
U        0.00000000       0.00000000       0.00000000       0.00000000       0.00000000       0.99585879
U        0.00000000       0.00000000       3.88363636       0.00000000       0.00000000      -0.99585879
2
Properties=species:S:1:pos:R:3:forces:R:3 energy=-10.690534954047166 pbc="F F F"
U        0.00000000       0.00000000       0.00000000       0.00000000       0.00000000       0.93844688
U        0.00000000       0.00000000       3.94242424       0.00000000       0.00000000      -0.93844688
2
Properties=species:S:1:pos:R:3:forces:R:3 energy=-10.636972515088809 pbc="F F F"
U        0.00000000       0.00000000       0.00000000       0.00000000       0.00000000       0.88441586
U        0.00000000       0.00000000       4.00121212       0.00000000       0.00000000      -0.88441586
2
Properties=species:S:1:pos:R:3:forces:R:3 energy=-10.586474183959561 pbc="F F F"
U        0.00000000       0.00000000       0.00000000       0.00000000       0.00000000       0.83427751
U        0.00000000       0.00000000       4.06000000       0.00000000       0.00000000      -0.83427751
2
Properties=species:S:1:pos:R:3:forces:R:3 energy=-10.538797189172987 pbc="F F F"
U        0.00000000       0.00000000       0.00000000       0.00000000       0.00000000       0.78847295
U        0.00000000       0.00000000       4.11878788       0.00000000       0.00000000      -0.78847295
2
Properties=species:S:1:pos:R:3:forces:R:3 energy=-10.49367892215134 pbc="F F F"
U        0.00000000       0.00000000       0.00000000       0.00000000       0.00000000       0.74718195
U        0.00000000       0.00000000       4.17757576       0.00000000       0.00000000      -0.74718195
2
Properties=species:S:1:pos:R:3:forces:R:3 energy=-10.450859774723995 pbc="F F F"
U        0.00000000       0.00000000       0.00000000       0.00000000       0.00000000       0.71028364
U        0.00000000       0.00000000       4.23636364       0.00000000       0.00000000      -0.71028364
2
Properties=species:S:1:pos:R:3:forces:R:3 energy=-10.410088905522858 pbc="F F F"
U        0.00000000       0.00000000       0.00000000       0.00000000       0.00000000       0.67732936
U        0.00000000       0.00000000       4.29515152       0.00000000       0.00000000      -0.67732936
2
Properties=species:S:1:pos:R:3:forces:R:3 energy=-10.37115868629936 pbc="F F F"
U        0.00000000       0.00000000       0.00000000       0.00000000       0.00000000       0.64759886
U        0.00000000       0.00000000       4.35393939       0.00000000       0.00000000      -0.64759886
2
Properties=species:S:1:pos:R:3:forces:R:3 energy=-10.333902718548082 pbc="F F F"
U        0.00000000       0.00000000       0.00000000       0.00000000       0.00000000       0.62015855
U        0.00000000       0.00000000       4.41272727       0.00000000       0.00000000      -0.62015855
2
Properties=species:S:1:pos:R:3:forces:R:3 energy=-10.298217901064573 pbc="F F F"
U        0.00000000       0.00000000       0.00000000       0.00000000       0.00000000       0.59397972
U        0.00000000       0.00000000       4.47151515       0.00000000       0.00000000      -0.59397972
2
Properties=species:S:1:pos:R:3:forces:R:3 energy=-10.264059680580694 pbc="F F F"
U        0.00000000       0.00000000       0.00000000       0.00000000       0.00000000       0.56808370
U        0.00000000       0.00000000       4.53030303       0.00000000       0.00000000      -0.56808370
2
Properties=species:S:1:pos:R:3:forces:R:3 energy=-10.231436380403874 pbc="F F F"
U        0.00000000       0.00000000       0.00000000       0.00000000       0.00000000       0.54167271
U        0.00000000       0.00000000       4.58909091       0.00000000       0.00000000      -0.54167271
2
Properties=species:S:1:pos:R:3:forces:R:3 energy=-10.20039202794378 pbc="F F F"
U        0.00000000       0.00000000       0.00000000       0.00000000       0.00000000       0.51426280
U        0.00000000       0.00000000       4.64787879       0.00000000       0.00000000      -0.51426280
2
Properties=species:S:1:pos:R:3:forces:R:3 energy=-10.170993117313468 pbc="F F F"
U        0.00000000       0.00000000       0.00000000       0.00000000       0.00000000       0.48572579
U        0.00000000       0.00000000       4.70666667       0.00000000       0.00000000      -0.48572579
2
Properties=species:S:1:pos:R:3:forces:R:3 energy=-10.143299923072176 pbc="F F F"
U        0.00000000       0.00000000       0.00000000       0.00000000       0.00000000       0.45631444
U        0.00000000       0.00000000       4.76545455       0.00000000       0.00000000      -0.45631444
2
Properties=species:S:1:pos:R:3:forces:R:3 energy=-10.117347553451868 pbc="F F F"
U        0.00000000       0.00000000       0.00000000       0.00000000       0.00000000       0.42656785
U        0.00000000       0.00000000       4.82424242       0.00000000       0.00000000      -0.42656785
2
Properties=species:S:1:pos:R:3:forces:R:3 energy=-10.093139255630097 pbc="F F F"
U        0.00000000       0.00000000       0.00000000       0.00000000       0.00000000       0.39722708
U        0.00000000       0.00000000       4.88303030       0.00000000       0.00000000      -0.39722708
2
Properties=species:S:1:pos:R:3:forces:R:3 energy=-10.070619674835275 pbc="F F F"
U        0.00000000       0.00000000       0.00000000       0.00000000       0.00000000       0.36912191
U        0.00000000       0.00000000       4.94181818       0.00000000       0.00000000      -0.36912191
2
Properties=species:S:1:pos:R:3:forces:R:3 energy=-10.049696782520302 pbc="F F F"
U        0.00000000       0.00000000       0.00000000       0.00000000       0.00000000       0.34306425
U        0.00000000       0.00000000       5.00060606       0.00000000       0.00000000      -0.34306425
2
Properties=species:S:1:pos:R:3:forces:R:3 energy=-10.03023053364109 pbc="F F F"
U        0.00000000       0.00000000       0.00000000       0.00000000       0.00000000       0.31966689
U        0.00000000       0.00000000       5.05939394       0.00000000       0.00000000      -0.31966689
2
Properties=species:S:1:pos:R:3:forces:R:3 energy=-10.012053670093467 pbc="F F F"
U        0.00000000       0.00000000       0.00000000       0.00000000       0.00000000       0.29917809
U        0.00000000       0.00000000       5.11818182       0.00000000       0.00000000      -0.29917809
2
Properties=species:S:1:pos:R:3:forces:R:3 energy=-9.995005149999422 pbc="F F F"
U        0.00000000       0.00000000       0.00000000       0.00000000       0.00000000       0.28121263
U        0.00000000       0.00000000       5.17696970       0.00000000       0.00000000      -0.28121263
2
Properties=species:S:1:pos:R:3:forces:R:3 energy=-9.978967233299482 pbc="F F F"
U        0.00000000       0.00000000       0.00000000       0.00000000       0.00000000       0.26449442
U        0.00000000       0.00000000       5.23575758       0.00000000       0.00000000      -0.26449442
2
Properties=species:S:1:pos:R:3:forces:R:3 energy=-9.963929384267553 pbc="F F F"
U        0.00000000       0.00000000       0.00000000       0.00000000       0.00000000       0.24670431
U        0.00000000       0.00000000       5.29454545       0.00000000       0.00000000      -0.24670431
2
Properties=species:S:1:pos:R:3:forces:R:3 energy=-9.950026342455859 pbc="F F F"
U        0.00000000       0.00000000       0.00000000       0.00000000       0.00000000       0.22565493
U        0.00000000       0.00000000       5.35333333       0.00000000       0.00000000      -0.22565493
2
Properties=species:S:1:pos:R:3:forces:R:3 energy=-9.937422588718464 pbc="F F F"
U        0.00000000       0.00000000       0.00000000       0.00000000       0.00000000       0.20356239
U        0.00000000       0.00000000       5.41212121       0.00000000       0.00000000      -0.20356239
2
Properties=species:S:1:pos:R:3:forces:R:3 energy=-9.925953731990097 pbc="F F F"
U        0.00000000       0.00000000       0.00000000       0.00000000       0.00000000       0.18821555
U        0.00000000       0.00000000       5.47090909       0.00000000       0.00000000      -0.18821555
2
Properties=species:S:1:pos:R:3:forces:R:3 energy=-9.915173194978134 pbc="F F F"
U        0.00000000       0.00000000       0.00000000       0.00000000       0.00000000       0.17837140
U        0.00000000       0.00000000       5.52969697       0.00000000       0.00000000      -0.17837140
2
Properties=species:S:1:pos:R:3:forces:R:3 energy=-9.905122573934003 pbc="F F F"
U        0.00000000       0.00000000       0.00000000       0.00000000       0.00000000       0.16201848
U        0.00000000       0.00000000       5.58848485       0.00000000       0.00000000      -0.16201848
2
Properties=species:S:1:pos:R:3:forces:R:3 energy=-9.896225913852584 pbc="F F F"
U        0.00000000       0.00000000       0.00000000       0.00000000       0.00000000       0.14099975
U        0.00000000       0.00000000       5.64727273       0.00000000       0.00000000      -0.14099975
2
Properties=species:S:1:pos:R:3:forces:R:3 energy=-9.888305212466758 pbc="F F F"
U        0.00000000       0.00000000       0.00000000       0.00000000       0.00000000       0.13225219
U        0.00000000       0.00000000       5.70606061       0.00000000       0.00000000      -0.13225219
2
Properties=species:S:1:pos:R:3:forces:R:3 energy=-9.880189464462834 pbc="F F F"
U        0.00000000       0.00000000       0.00000000       0.00000000       0.00000000       0.14593521
U        0.00000000       0.00000000       5.76484848       0.00000000       0.00000000      -0.14593521
2
Properties=species:S:1:pos:R:3:forces:R:3 energy=-9.87135499397605 pbc="F F F"
U        0.00000000       0.00000000       0.00000000       0.00000000       0.00000000       0.14893717
U        0.00000000       0.00000000       5.82363636       0.00000000       0.00000000      -0.14893717
2
Properties=species:S:1:pos:R:3:forces:R:3 energy=-9.863595084892838 pbc="F F F"
U        0.00000000       0.00000000       0.00000000       0.00000000       0.00000000       0.10915242
U        0.00000000       0.00000000       5.88242424       0.00000000       0.00000000      -0.10915242
2
Properties=species:S:1:pos:R:3:forces:R:3 energy=-9.858784679126934 pbc="F F F"
U        0.00000000       0.00000000       0.00000000       0.00000000       0.00000000       0.05596888
U        0.00000000       0.00000000       5.94121212       0.00000000       0.00000000      -0.05596888
2
Properties=species:S:1:pos:R:3:forces:R:3 energy=-9.85639219281055 pbc="F F F"
U        0.00000000       0.00000000       0.00000000       0.00000000       0.00000000       0.03283592
U        0.00000000       0.00000000       6.00000000       0.00000000       0.00000000      -0.03283592
