2
Properties=species:S:1:pos:R:3:forces:R:3 energy=4933.789423477383 pbc="F F F"
V        0.00000000       0.00000000       0.00000000       0.00000000       0.00000000  -43504.78125000
V        0.00000000       0.00000000       0.18000000       0.00000000       0.00000000   43504.78125000
2
Properties=species:S:1:pos:R:3:forces:R:3 energy=3331.8238473055076 pbc="F F F"
V        0.00000000       0.00000000       0.00000000       0.00000000       0.00000000  -16392.77539062
V        0.00000000       0.00000000       0.23878788       0.00000000       0.00000000   16392.77539062
2
Properties=species:S:1:pos:R:3:forces:R:3 energy=2665.9500680086326 pbc="F F F"
V        0.00000000       0.00000000       0.00000000       0.00000000       0.00000000   -7773.65380859
V        0.00000000       0.00000000       0.29757576       0.00000000       0.00000000    7773.65380859
2
Properties=species:S:1:pos:R:3:forces:R:3 energy=2310.7689156712186 pbc="F F F"
V        0.00000000       0.00000000       0.00000000       0.00000000       0.00000000   -4851.47656250
V        0.00000000       0.00000000       0.35636364       0.00000000       0.00000000    4851.47656250
2
Properties=species:S:1:pos:R:3:forces:R:3 energy=2053.9276070774686 pbc="F F F"
V        0.00000000       0.00000000       0.00000000       0.00000000       0.00000000   -4112.62792969
V        0.00000000       0.00000000       0.41515152       0.00000000       0.00000000    4112.62792969
2
Properties=species:S:1:pos:R:3:forces:R:3 energy=1808.8251901042877 pbc="F F F"
V        0.00000000       0.00000000       0.00000000       0.00000000       0.00000000   -4377.34130859
V        0.00000000       0.00000000       0.47393939       0.00000000       0.00000000    4377.34130859
2
Properties=species:S:1:pos:R:3:forces:R:3 energy=1587.2702584890053 pbc="F F F"
V        0.00000000       0.00000000       0.00000000       0.00000000       0.00000000   -4116.61474609
V        0.00000000       0.00000000       0.53272727       0.00000000       0.00000000    4116.61474609
2
Properties=species:S:1:pos:R:3:forces:R:3 energy=1312.02196751773 pbc="F F F"
V        0.00000000       0.00000000       0.00000000       0.00000000       0.00000000   -5180.29394531
V        0.00000000       0.00000000       0.59151515       0.00000000       0.00000000    5180.29394531
2
Properties=species:S:1:pos:R:3:forces:R:3 energy=1008.5179392734451 pbc="F F F"
V        0.00000000       0.00000000       0.00000000       0.00000000       0.00000000   -5056.49414062
V        0.00000000       0.00000000       0.65030303       0.00000000       0.00000000    5056.49414062
2
Properties=species:S:1:pos:R:3:forces:R:3 energy=727.747187447033 pbc="F F F"
V        0.00000000       0.00000000       0.00000000       0.00000000       0.00000000   -4416.66699219
V        0.00000000       0.00000000       0.70909091       0.00000000       0.00000000    4416.66699219
2
Properties=species:S:1:pos:R:3:forces:R:3 energy=496.65005018593047 pbc="F F F"
V        0.00000000       0.00000000       0.00000000       0.00000000       0.00000000   -3399.64868164
V        0.00000000       0.00000000       0.76787879       0.00000000       0.00000000    3399.64868164
2
Properties=species:S:1:pos:R:3:forces:R:3 energy=331.66381389243315 pbc="F F F"
V        0.00000000       0.00000000       0.00000000       0.00000000       0.00000000   -2199.33496094
V        0.00000000       0.00000000       0.82666667       0.00000000       0.00000000    2199.33496094
2
Properties=species:S:1:pos:R:3:forces:R:3 energy=231.35799764118815 pbc="F F F"
V        0.00000000       0.00000000       0.00000000       0.00000000       0.00000000   -1378.38696289
V        0.00000000       0.00000000       0.88545455       0.00000000       0.00000000    1378.38696289
2
Properties=species:S:1:pos:R:3:forces:R:3 energy=161.18575699412298 pbc="F F F"
V        0.00000000       0.00000000       0.00000000       0.00000000       0.00000000   -1012.21771240
V        0.00000000       0.00000000       0.94424242       0.00000000       0.00000000    1012.21771240
2
Properties=species:S:1:pos:R:3:forces:R:3 energy=109.86807740184922 pbc="F F F"
V        0.00000000       0.00000000       0.00000000       0.00000000       0.00000000    -753.25128174
V        0.00000000       0.00000000       1.00303030       0.00000000       0.00000000     753.25128174
2
Properties=species:S:1:pos:R:3:forces:R:3 energy=71.50932141551628 pbc="F F F"
V        0.00000000       0.00000000       0.00000000       0.00000000       0.00000000    -555.39532471
V        0.00000000       0.00000000       1.06181818       0.00000000       0.00000000     555.39532471
2
Properties=species:S:1:pos:R:3:forces:R:3 energy=43.995265637262904 pbc="F F F"
V        0.00000000       0.00000000       0.00000000       0.00000000       0.00000000    -387.30307007
V        0.00000000       0.00000000       1.12060606       0.00000000       0.00000000     387.30307007
2
Properties=species:S:1:pos:R:3:forces:R:3 energy=25.149802736500632 pbc="F F F"
V        0.00000000       0.00000000       0.00000000       0.00000000       0.00000000    -261.11380005
V        0.00000000       0.00000000       1.17939394       0.00000000       0.00000000     261.11380005
2
Properties=species:S:1:pos:R:3:forces:R:3 energy=12.49730873012711 pbc="F F F"
V        0.00000000       0.00000000       0.00000000       0.00000000       0.00000000    -174.77569580
V        0.00000000       0.00000000       1.23818182       0.00000000       0.00000000     174.77569580
2
Properties=species:S:1:pos:R:3:forces:R:3 energy=4.120898845715816 pbc="F F F"
V        0.00000000       0.00000000       0.00000000       0.00000000       0.00000000    -113.50531006
V        0.00000000       0.00000000       1.29696970       0.00000000       0.00000000     113.50531006
2
Properties=species:S:1:pos:R:3:forces:R:3 energy=-1.220515167699412 pbc="F F F"
V        0.00000000       0.00000000       0.00000000       0.00000000       0.00000000     -71.26980591
V        0.00000000       0.00000000       1.35575758       0.00000000       0.00000000      71.26980591
2
Properties=species:S:1:pos:R:3:forces:R:3 energy=-4.575661140924246 pbc="F F F"
V        0.00000000       0.00000000       0.00000000       0.00000000       0.00000000     -45.05458069
V        0.00000000       0.00000000       1.41454545       0.00000000       0.00000000      45.05458069
2
Properties=species:S:1:pos:R:3:forces:R:3 energy=-6.712966720033985 pbc="F F F"
V        0.00000000       0.00000000       0.00000000       0.00000000       0.00000000     -28.90136337
V        0.00000000       0.00000000       1.47333333       0.00000000       0.00000000      28.90136337
2
Properties=species:S:1:pos:R:3:forces:R:3 energy=-8.088453488024099 pbc="F F F"
V        0.00000000       0.00000000       0.00000000       0.00000000       0.00000000     -18.65867424
V        0.00000000       0.00000000       1.53212121       0.00000000       0.00000000      18.65867424
2
Properties=species:S:1:pos:R:3:forces:R:3 energy=-8.977955777205676 pbc="F F F"
V        0.00000000       0.00000000       0.00000000       0.00000000       0.00000000     -12.07527924
V        0.00000000       0.00000000       1.59090909       0.00000000       0.00000000      12.07527924
2
Properties=species:S:1:pos:R:3:forces:R:3 energy=-9.55214476548742 pbc="F F F"
V        0.00000000       0.00000000       0.00000000       0.00000000       0.00000000      -7.74876308
V        0.00000000       0.00000000       1.64969697       0.00000000       0.00000000       7.74876308
2
Properties=species:S:1:pos:R:3:forces:R:3 energy=-9.915083189151668 pbc="F F F"
V        0.00000000       0.00000000       0.00000000       0.00000000       0.00000000      -4.76283884
V        0.00000000       0.00000000       1.70848485       0.00000000       0.00000000       4.76283884
2
Properties=species:S:1:pos:R:3:forces:R:3 energy=-10.127021992720692 pbc="F F F"
V        0.00000000       0.00000000       0.00000000       0.00000000       0.00000000      -2.54937220
V        0.00000000       0.00000000       1.76727273       0.00000000       0.00000000       2.54937220
2
Properties=species:S:1:pos:R:3:forces:R:3 energy=-10.225271789146548 pbc="F F F"
V        0.00000000       0.00000000       0.00000000       0.00000000       0.00000000      -0.87054110
V        0.00000000       0.00000000       1.82606061       0.00000000       0.00000000       0.87054110
2
Properties=species:S:1:pos:R:3:forces:R:3 energy=-10.23689111011654 pbc="F F F"
V        0.00000000       0.00000000       0.00000000       0.00000000       0.00000000       0.42546889
V        0.00000000       0.00000000       1.88484848       0.00000000       0.00000000      -0.42546889
2
Properties=species:S:1:pos:R:3:forces:R:3 energy=-10.179824110842455 pbc="F F F"
V        0.00000000       0.00000000       0.00000000       0.00000000       0.00000000       1.48363113
V        0.00000000       0.00000000       1.94363636       0.00000000       0.00000000      -1.48363113
2
Properties=species:S:1:pos:R:3:forces:R:3 energy=-10.06622406803244 pbc="F F F"
V        0.00000000       0.00000000       0.00000000       0.00000000       0.00000000       2.34654140
V        0.00000000       0.00000000       2.00242424       0.00000000       0.00000000      -2.34654140
2
Properties=species:S:1:pos:R:3:forces:R:3 energy=-9.908543604104338 pbc="F F F"
V        0.00000000       0.00000000       0.00000000       0.00000000       0.00000000       2.97359109
V        0.00000000       0.00000000       2.06121212       0.00000000       0.00000000      -2.97359109
2
Properties=species:S:1:pos:R:3:forces:R:3 energy=-9.722330289753708 pbc="F F F"
V        0.00000000       0.00000000       0.00000000       0.00000000       0.00000000       3.30920982
V        0.00000000       0.00000000       2.12000000       0.00000000       0.00000000      -3.30920982
2
Properties=species:S:1:pos:R:3:forces:R:3 energy=-9.525773451928861 pbc="F F F"
V        0.00000000       0.00000000       0.00000000       0.00000000       0.00000000       3.32457566
V        0.00000000       0.00000000       2.17878788       0.00000000       0.00000000      -3.32457566
2
Properties=species:S:1:pos:R:3:forces:R:3 energy=-9.33724093713016 pbc="F F F"
V        0.00000000       0.00000000       0.00000000       0.00000000       0.00000000       3.04611206
V        0.00000000       0.00000000       2.23757576       0.00000000       0.00000000      -3.04611206
2
Properties=species:S:1:pos:R:3:forces:R:3 energy=-9.171720403703027 pbc="F F F"
V        0.00000000       0.00000000       0.00000000       0.00000000       0.00000000       2.55978870
V        0.00000000       0.00000000       2.29636364       0.00000000       0.00000000      -2.55978870
2
Properties=species:S:1:pos:R:3:forces:R:3 energy=-9.038037788687038 pbc="F F F"
V        0.00000000       0.00000000       0.00000000       0.00000000       0.00000000       1.98297644
V        0.00000000       0.00000000       2.35515152       0.00000000       0.00000000      -1.98297644
2
Properties=species:S:1:pos:R:3:forces:R:3 energy=-8.938184433630235 pbc="F F F"
V        0.00000000       0.00000000       0.00000000       0.00000000       0.00000000       1.42468560
V        0.00000000       0.00000000       2.41393939       0.00000000       0.00000000      -1.42468560
2
Properties=species:S:1:pos:R:3:forces:R:3 energy=-8.868665425779167 pbc="F F F"
V        0.00000000       0.00000000       0.00000000       0.00000000       0.00000000       0.96011484
V        0.00000000       0.00000000       2.47272727       0.00000000       0.00000000      -0.96011484
2
Properties=species:S:1:pos:R:3:forces:R:3 energy=-8.822730707945633 pbc="F F F"
V        0.00000000       0.00000000       0.00000000       0.00000000       0.00000000       0.62539238
V        0.00000000       0.00000000       2.53151515       0.00000000       0.00000000      -0.62539238
2
Properties=species:S:1:pos:R:3:forces:R:3 energy=-8.79250922276095 pbc="F F F"
V        0.00000000       0.00000000       0.00000000       0.00000000       0.00000000       0.42390081
V        0.00000000       0.00000000       2.59030303       0.00000000       0.00000000      -0.42390081
2
Properties=species:S:1:pos:R:3:forces:R:3 energy=-8.7706570495371 pbc="F F F"
V        0.00000000       0.00000000       0.00000000       0.00000000       0.00000000       0.33596408
V        0.00000000       0.00000000       2.64909091       0.00000000       0.00000000      -0.33596408
2
Properties=species:S:1:pos:R:3:forces:R:3 energy=-8.751415540352614 pbc="F F F"
V        0.00000000       0.00000000       0.00000000       0.00000000       0.00000000       0.32920909
V        0.00000000       0.00000000       2.70787879       0.00000000       0.00000000      -0.32920909
2
Properties=species:S:1:pos:R:3:forces:R:3 energy=-8.731017756999183 pbc="F F F"
V        0.00000000       0.00000000       0.00000000       0.00000000       0.00000000       0.37045512
V        0.00000000       0.00000000       2.76666667       0.00000000       0.00000000      -0.37045512
2
Properties=species:S:1:pos:R:3:forces:R:3 energy=-8.707319622820094 pbc="F F F"
V        0.00000000       0.00000000       0.00000000       0.00000000       0.00000000       0.44007558
V        0.00000000       0.00000000       2.82545455       0.00000000       0.00000000      -0.44007558
2
Properties=species:S:1:pos:R:3:forces:R:3 energy=-8.678690945916703 pbc="F F F"
V        0.00000000       0.00000000       0.00000000       0.00000000       0.00000000       0.53967154
V        0.00000000       0.00000000       2.88424242       0.00000000       0.00000000      -0.53967154
2
Properties=species:S:1:pos:R:3:forces:R:3 energy=-8.643219816791095 pbc="F F F"
V        0.00000000       0.00000000       0.00000000       0.00000000       0.00000000       0.67097521
V        0.00000000       0.00000000       2.94303030       0.00000000       0.00000000      -0.67097521
2
Properties=species:S:1:pos:R:3:forces:R:3 energy=-8.599733553347724 pbc="F F F"
V        0.00000000       0.00000000       0.00000000       0.00000000       0.00000000       0.80540407
V        0.00000000       0.00000000       3.00181818       0.00000000       0.00000000      -0.80540407
2
Properties=species:S:1:pos:R:3:forces:R:3 energy=-8.54920043525035 pbc="F F F"
V        0.00000000       0.00000000       0.00000000       0.00000000       0.00000000       0.90655524
V        0.00000000       0.00000000       3.06060606       0.00000000       0.00000000      -0.90655524
2
Properties=species:S:1:pos:R:3:forces:R:3 energy=-8.493973425777156 pbc="F F F"
V        0.00000000       0.00000000       0.00000000       0.00000000       0.00000000       0.96603709
V        0.00000000       0.00000000       3.11939394       0.00000000       0.00000000      -0.96603709
2
Properties=species:S:1:pos:R:3:forces:R:3 energy=-8.43621934751358 pbc="F F F"
V        0.00000000       0.00000000       0.00000000       0.00000000       0.00000000       0.99472654
V        0.00000000       0.00000000       3.17818182       0.00000000       0.00000000      -0.99472654
2
Properties=species:S:1:pos:R:3:forces:R:3 energy=-8.377403894431891 pbc="F F F"
V        0.00000000       0.00000000       0.00000000       0.00000000       0.00000000       1.00352108
V        0.00000000       0.00000000       3.23696970       0.00000000       0.00000000      -1.00352108
2
Properties=species:S:1:pos:R:3:forces:R:3 energy=-8.318507578927033 pbc="F F F"
V        0.00000000       0.00000000       0.00000000       0.00000000       0.00000000       0.99801099
V        0.00000000       0.00000000       3.29575758       0.00000000       0.00000000      -0.99801099
2
Properties=species:S:1:pos:R:3:forces:R:3 energy=-8.26029980602028 pbc="F F F"
V        0.00000000       0.00000000       0.00000000       0.00000000       0.00000000       0.98033297
V        0.00000000       0.00000000       3.35454545       0.00000000       0.00000000      -0.98033297
2
Properties=species:S:1:pos:R:3:forces:R:3 energy=-8.203460719060875 pbc="F F F"
V        0.00000000       0.00000000       0.00000000       0.00000000       0.00000000       0.95165020
V        0.00000000       0.00000000       3.41333333       0.00000000       0.00000000      -0.95165020
2
Properties=species:S:1:pos:R:3:forces:R:3 energy=-8.148590672734693 pbc="F F F"
V        0.00000000       0.00000000       0.00000000       0.00000000       0.00000000       0.91370827
V        0.00000000       0.00000000       3.47212121       0.00000000       0.00000000      -0.91370827
2
Properties=species:S:1:pos:R:3:forces:R:3 energy=-8.096158000486493 pbc="F F F"
V        0.00000000       0.00000000       0.00000000       0.00000000       0.00000000       0.86931038
V        0.00000000       0.00000000       3.53090909       0.00000000       0.00000000      -0.86931038
2
Properties=species:S:1:pos:R:3:forces:R:3 energy=-8.046440240868982 pbc="F F F"
V        0.00000000       0.00000000       0.00000000       0.00000000       0.00000000       0.82189721
V        0.00000000       0.00000000       3.58969697       0.00000000       0.00000000      -0.82189721
2
Properties=species:S:1:pos:R:3:forces:R:3 energy=-7.999517268425599 pbc="F F F"
V        0.00000000       0.00000000       0.00000000       0.00000000       0.00000000       0.77470171
V        0.00000000       0.00000000       3.64848485       0.00000000       0.00000000      -0.77470171
2
Properties=species:S:1:pos:R:3:forces:R:3 energy=-7.955304369524799 pbc="F F F"
V        0.00000000       0.00000000       0.00000000       0.00000000       0.00000000       0.72999895
V        0.00000000       0.00000000       3.70727273       0.00000000       0.00000000      -0.72999895
2
Properties=species:S:1:pos:R:3:forces:R:3 energy=-7.9136174296665525 pbc="F F F"
V        0.00000000       0.00000000       0.00000000       0.00000000       0.00000000       0.68881899
V        0.00000000       0.00000000       3.76606061       0.00000000       0.00000000      -0.68881899
2
Properties=species:S:1:pos:R:3:forces:R:3 energy=-7.8742479236290706 pbc="F F F"
V        0.00000000       0.00000000       0.00000000       0.00000000       0.00000000       0.65110153
V        0.00000000       0.00000000       3.82484848       0.00000000       0.00000000      -0.65110153
2
Properties=species:S:1:pos:R:3:forces:R:3 energy=-7.837010101676696 pbc="F F F"
V        0.00000000       0.00000000       0.00000000       0.00000000       0.00000000       0.61609435
V        0.00000000       0.00000000       3.88363636       0.00000000       0.00000000      -0.61609435
2
Properties=species:S:1:pos:R:3:forces:R:3 energy=-7.8017766969898075 pbc="F F F"
V        0.00000000       0.00000000       0.00000000       0.00000000       0.00000000       0.58277351
V        0.00000000       0.00000000       3.94242424       0.00000000       0.00000000      -0.58277351
2
Properties=species:S:1:pos:R:3:forces:R:3 energy=-7.768477149700879 pbc="F F F"
V        0.00000000       0.00000000       0.00000000       0.00000000       0.00000000       0.55015087
V        0.00000000       0.00000000       4.00121212       0.00000000       0.00000000      -0.55015087
2
Properties=species:S:1:pos:R:3:forces:R:3 energy=-7.737094473438829 pbc="F F F"
V        0.00000000       0.00000000       0.00000000       0.00000000       0.00000000       0.51744574
V        0.00000000       0.00000000       4.06000000       0.00000000       0.00000000      -0.51744574
2
Properties=species:S:1:pos:R:3:forces:R:3 energy=-7.707649849156303 pbc="F F F"
V        0.00000000       0.00000000       0.00000000       0.00000000       0.00000000       0.48417529
V        0.00000000       0.00000000       4.11878788       0.00000000       0.00000000      -0.48417529
2
Properties=species:S:1:pos:R:3:forces:R:3 energy=-7.680181951733302 pbc="F F F"
V        0.00000000       0.00000000       0.00000000       0.00000000       0.00000000       0.45015880
V        0.00000000       0.00000000       4.17757576       0.00000000       0.00000000      -0.45015880
2
Properties=species:S:1:pos:R:3:forces:R:3 energy=-7.65473362221551 pbc="F F F"
V        0.00000000       0.00000000       0.00000000       0.00000000       0.00000000       0.41551545
V        0.00000000       0.00000000       4.23636364       0.00000000       0.00000000      -0.41551545
2
Properties=species:S:1:pos:R:3:forces:R:3 energy=-7.6313320197155114 pbc="F F F"
V        0.00000000       0.00000000       0.00000000       0.00000000       0.00000000       0.38061872
V        0.00000000       0.00000000       4.29515152       0.00000000       0.00000000      -0.38061872
2
Properties=species:S:1:pos:R:3:forces:R:3 energy=-7.6099760462486445 pbc="F F F"
V        0.00000000       0.00000000       0.00000000       0.00000000       0.00000000       0.34604695
V        0.00000000       0.00000000       4.35393939       0.00000000       0.00000000      -0.34604695
2
Properties=species:S:1:pos:R:3:forces:R:3 energy=-7.5906260227061075 pbc="F F F"
V        0.00000000       0.00000000       0.00000000       0.00000000       0.00000000       0.31249034
V        0.00000000       0.00000000       4.41272727       0.00000000       0.00000000      -0.31249034
2
Properties=species:S:1:pos:R:3:forces:R:3 energy=-7.573200503050313 pbc="F F F"
V        0.00000000       0.00000000       0.00000000       0.00000000       0.00000000       0.28066915
V        0.00000000       0.00000000       4.47151515       0.00000000       0.00000000      -0.28066915
2
Properties=species:S:1:pos:R:3:forces:R:3 energy=-7.557579092652166 pbc="F F F"
V        0.00000000       0.00000000       0.00000000       0.00000000       0.00000000       0.25122082
V        0.00000000       0.00000000       4.53030303       0.00000000       0.00000000      -0.25122082
2
Properties=species:S:1:pos:R:3:forces:R:3 energy=-7.543607203991354 pbc="F F F"
V        0.00000000       0.00000000       0.00000000       0.00000000       0.00000000       0.22461978
V        0.00000000       0.00000000       4.58909091       0.00000000       0.00000000      -0.22461978
2
Properties=species:S:1:pos:R:3:forces:R:3 energy=-7.531108620813048 pbc="F F F"
V        0.00000000       0.00000000       0.00000000       0.00000000       0.00000000       0.20110767
V        0.00000000       0.00000000       4.64787879       0.00000000       0.00000000      -0.20110767
2
Properties=species:S:1:pos:R:3:forces:R:3 energy=-7.519901476172446 pbc="F F F"
V        0.00000000       0.00000000       0.00000000       0.00000000       0.00000000       0.18065472
V        0.00000000       0.00000000       4.70666667       0.00000000       0.00000000      -0.18065472
2
Properties=species:S:1:pos:R:3:forces:R:3 energy=-7.509813886690683 pbc="F F F"
V        0.00000000       0.00000000       0.00000000       0.00000000       0.00000000       0.16297409
V        0.00000000       0.00000000       4.76545455       0.00000000       0.00000000      -0.16297409
2
Properties=species:S:1:pos:R:3:forces:R:3 energy=-7.500695244591162 pbc="F F F"
V        0.00000000       0.00000000       0.00000000       0.00000000       0.00000000       0.14755812
V        0.00000000       0.00000000       4.82424242       0.00000000       0.00000000      -0.14755812
2
Properties=species:S:1:pos:R:3:forces:R:3 energy=-7.492432240093609 pbc="F F F"
V        0.00000000       0.00000000       0.00000000       0.00000000       0.00000000       0.13379206
V        0.00000000       0.00000000       4.88303030       0.00000000       0.00000000      -0.13379206
2
Properties=species:S:1:pos:R:3:forces:R:3 energy=-7.484944462173693 pbc="F F F"
V        0.00000000       0.00000000       0.00000000       0.00000000       0.00000000       0.12106937
V        0.00000000       0.00000000       4.94181818       0.00000000       0.00000000      -0.12106937
2
Properties=species:S:1:pos:R:3:forces:R:3 energy=-7.478185298384366 pbc="F F F"
V        0.00000000       0.00000000       0.00000000       0.00000000       0.00000000       0.10896099
V        0.00000000       0.00000000       5.00060606       0.00000000       0.00000000      -0.10896099
2
Properties=species:S:1:pos:R:3:forces:R:3 energy=-7.4721243615730994 pbc="F F F"
V        0.00000000       0.00000000       0.00000000       0.00000000       0.00000000       0.09730843
V        0.00000000       0.00000000       5.05939394       0.00000000       0.00000000      -0.09730843
2
Properties=species:S:1:pos:R:3:forces:R:3 energy=-7.466732028352199 pbc="F F F"
V        0.00000000       0.00000000       0.00000000       0.00000000       0.00000000       0.08627331
V        0.00000000       0.00000000       5.11818182       0.00000000       0.00000000      -0.08627331
2
Properties=species:S:1:pos:R:3:forces:R:3 energy=-7.4619609754981715 pbc="F F F"
V        0.00000000       0.00000000       0.00000000       0.00000000       0.00000000       0.07626081
V        0.00000000       0.00000000       5.17696970       0.00000000       0.00000000      -0.07626081
2
Properties=species:S:1:pos:R:3:forces:R:3 energy=-7.457735765561969 pbc="F F F"
V        0.00000000       0.00000000       0.00000000       0.00000000       0.00000000       0.06777034
V        0.00000000       0.00000000       5.23575758       0.00000000       0.00000000      -0.06777034
2
Properties=species:S:1:pos:R:3:forces:R:3 energy=-7.453955631864212 pbc="F F F"
V        0.00000000       0.00000000       0.00000000       0.00000000       0.00000000       0.06115511
V        0.00000000       0.00000000       5.29454545       0.00000000       0.00000000      -0.06115511
2
Properties=species:S:1:pos:R:3:forces:R:3 energy=-7.450511373704166 pbc="F F F"
V        0.00000000       0.00000000       0.00000000       0.00000000       0.00000000       0.05624815
V        0.00000000       0.00000000       5.35333333       0.00000000       0.00000000      -0.05624815
2
Properties=species:S:1:pos:R:3:forces:R:3 energy=-7.44733210224035 pbc="F F F"
V        0.00000000       0.00000000       0.00000000       0.00000000       0.00000000       0.05183012
V        0.00000000       0.00000000       5.41212121       0.00000000       0.00000000      -0.05183012
2
Properties=species:S:1:pos:R:3:forces:R:3 energy=-7.44444393264269 pbc="F F F"
V        0.00000000       0.00000000       0.00000000       0.00000000       0.00000000       0.04614581
V        0.00000000       0.00000000       5.47090909       0.00000000       0.00000000      -0.04614581
2
Properties=species:S:1:pos:R:3:forces:R:3 energy=-7.4419181830724925 pbc="F F F"
V        0.00000000       0.00000000       0.00000000       0.00000000       0.00000000       0.03996481
V        0.00000000       0.00000000       5.52969697       0.00000000       0.00000000      -0.03996481
2
Properties=species:S:1:pos:R:3:forces:R:3 energy=-7.439703095515104 pbc="F F F"
V        0.00000000       0.00000000       0.00000000       0.00000000       0.00000000       0.03575156
V        0.00000000       0.00000000       5.58848485       0.00000000       0.00000000      -0.03575156
2
Properties=species:S:1:pos:R:3:forces:R:3 energy=-7.437692086849982 pbc="F F F"
V        0.00000000       0.00000000       0.00000000       0.00000000       0.00000000       0.03268433
V        0.00000000       0.00000000       5.64727273       0.00000000       0.00000000      -0.03268433
2
Properties=species:S:1:pos:R:3:forces:R:3 energy=-7.43587690861314 pbc="F F F"
V        0.00000000       0.00000000       0.00000000       0.00000000       0.00000000       0.02882448
V        0.00000000       0.00000000       5.70606061       0.00000000       0.00000000      -0.02882448
2
Properties=species:S:1:pos:R:3:forces:R:3 energy=-7.434323421752832 pbc="F F F"
V        0.00000000       0.00000000       0.00000000       0.00000000       0.00000000       0.02404561
V        0.00000000       0.00000000       5.76484848       0.00000000       0.00000000      -0.02404561
2
Properties=species:S:1:pos:R:3:forces:R:3 energy=-7.433011905282802 pbc="F F F"
V        0.00000000       0.00000000       0.00000000       0.00000000       0.00000000       0.02106453
V        0.00000000       0.00000000       5.82363636       0.00000000       0.00000000      -0.02106453
2
Properties=species:S:1:pos:R:3:forces:R:3 energy=-7.431799886742606 pbc="F F F"
V        0.00000000       0.00000000       0.00000000       0.00000000       0.00000000       0.02035199
V        0.00000000       0.00000000       5.88242424       0.00000000       0.00000000      -0.02035199
2
Properties=species:S:1:pos:R:3:forces:R:3 energy=-7.4306158616289055 pbc="F F F"
V        0.00000000       0.00000000       0.00000000       0.00000000       0.00000000       0.01987779
V        0.00000000       0.00000000       5.94121212       0.00000000       0.00000000      -0.01987779
2
Properties=species:S:1:pos:R:3:forces:R:3 energy=-7.429470718480337 pbc="F F F"
V        0.00000000       0.00000000       0.00000000       0.00000000       0.00000000       0.01901128
V        0.00000000       0.00000000       6.00000000       0.00000000       0.00000000      -0.01901128
