2
Properties=species:S:1:pos:R:3:forces:R:3 energy=4933.790888321133 pbc="F F F"
V        0.00000000       0.00000000       0.00000000       0.00000000       0.00000000  -43504.76953125
V        0.00000000       0.00000000       0.18000000       0.00000000       0.00000000   43504.76953125
2
Properties=species:S:1:pos:R:3:forces:R:3 energy=3331.8184762117576 pbc="F F F"
V        0.00000000       0.00000000       0.00000000       0.00000000       0.00000000  -16392.76953125
V        0.00000000       0.00000000       0.23878788       0.00000000       0.00000000   16392.76953125
2
Properties=species:S:1:pos:R:3:forces:R:3 energy=2665.9444527742576 pbc="F F F"
V        0.00000000       0.00000000       0.00000000       0.00000000       0.00000000   -7773.65039062
V        0.00000000       0.00000000       0.29757576       0.00000000       0.00000000    7773.65039062
2
Properties=species:S:1:pos:R:3:forces:R:3 energy=2310.7691598118436 pbc="F F F"
V        0.00000000       0.00000000       0.00000000       0.00000000       0.00000000   -4851.47412109
V        0.00000000       0.00000000       0.35636364       0.00000000       0.00000000    4851.47412109
2
Properties=species:S:1:pos:R:3:forces:R:3 energy=2053.9254098118436 pbc="F F F"
V        0.00000000       0.00000000       0.00000000       0.00000000       0.00000000   -4112.62451172
V        0.00000000       0.00000000       0.41515152       0.00000000       0.00000000    4112.62451172
2
Properties=species:S:1:pos:R:3:forces:R:3 energy=1808.8215279949127 pbc="F F F"
V        0.00000000       0.00000000       0.00000000       0.00000000       0.00000000   -4377.33056641
V        0.00000000       0.00000000       0.47393939       0.00000000       0.00000000    4377.33056641
2
Properties=species:S:1:pos:R:3:forces:R:3 energy=1587.2685495046303 pbc="F F F"
V        0.00000000       0.00000000       0.00000000       0.00000000       0.00000000   -4116.61523438
V        0.00000000       0.00000000       0.53272727       0.00000000       0.00000000    4116.61523438
2
Properties=species:S:1:pos:R:3:forces:R:3 energy=1312.0191599005425 pbc="F F F"
V        0.00000000       0.00000000       0.00000000       0.00000000       0.00000000   -5180.27880859
V        0.00000000       0.00000000       0.59151515       0.00000000       0.00000000    5180.27880859
2
Properties=species:S:1:pos:R:3:forces:R:3 energy=1008.5165965000076 pbc="F F F"
V        0.00000000       0.00000000       0.00000000       0.00000000       0.00000000   -5056.48632812
V        0.00000000       0.00000000       0.65030303       0.00000000       0.00000000    5056.48632812
2
Properties=species:S:1:pos:R:3:forces:R:3 energy=727.746210884533 pbc="F F F"
V        0.00000000       0.00000000       0.00000000       0.00000000       0.00000000   -4416.66113281
V        0.00000000       0.00000000       0.70909091       0.00000000       0.00000000    4416.66113281
2
Properties=species:S:1:pos:R:3:forces:R:3 energy=496.64907362343047 pbc="F F F"
V        0.00000000       0.00000000       0.00000000       0.00000000       0.00000000   -3399.64184570
V        0.00000000       0.00000000       0.76787879       0.00000000       0.00000000    3399.64184570
2
Properties=species:S:1:pos:R:3:forces:R:3 energy=331.6631425057144 pbc="F F F"
V        0.00000000       0.00000000       0.00000000       0.00000000       0.00000000   -2199.33251953
V        0.00000000       0.00000000       0.82666667       0.00000000       0.00000000    2199.33251953
2
Properties=species:S:1:pos:R:3:forces:R:3 energy=231.3577382417741 pbc="F F F"
V        0.00000000       0.00000000       0.00000000       0.00000000       0.00000000   -1378.38562012
V        0.00000000       0.00000000       0.88545455       0.00000000       0.00000000    1378.38562012
2
Properties=species:S:1:pos:R:3:forces:R:3 energy=161.18560440623236 pbc="F F F"
V        0.00000000       0.00000000       0.00000000       0.00000000       0.00000000   -1012.21777344
V        0.00000000       0.00000000       0.94424242       0.00000000       0.00000000    1012.21777344
2
Properties=species:S:1:pos:R:3:forces:R:3 energy=109.86800873729844 pbc="F F F"
V        0.00000000       0.00000000       0.00000000       0.00000000       0.00000000    -753.25061035
V        0.00000000       0.00000000       1.00303030       0.00000000       0.00000000     753.25061035
2
Properties=species:S:1:pos:R:3:forces:R:3 energy=71.50932141551628 pbc="F F F"
V        0.00000000       0.00000000       0.00000000       0.00000000       0.00000000    -555.39544678
V        0.00000000       0.00000000       1.06181818       0.00000000       0.00000000     555.39544678
2
Properties=species:S:1:pos:R:3:forces:R:3 energy=43.99531141363009 pbc="F F F"
V        0.00000000       0.00000000       0.00000000       0.00000000       0.00000000    -387.30328369
V        0.00000000       0.00000000       1.12060606       0.00000000       0.00000000     387.30328369
2
Properties=species:S:1:pos:R:3:forces:R:3 energy=25.149802736500632 pbc="F F F"
V        0.00000000       0.00000000       0.00000000       0.00000000       0.00000000    -261.11376953
V        0.00000000       0.00000000       1.17939394       0.00000000       0.00000000     261.11376953
2
Properties=species:S:1:pos:R:3:forces:R:3 energy=12.497304915429844 pbc="F F F"
V        0.00000000       0.00000000       0.00000000       0.00000000       0.00000000    -174.77555847
V        0.00000000       0.00000000       1.23818182       0.00000000       0.00000000     174.77555847
2
Properties=species:S:1:pos:R:3:forces:R:3 energy=4.120879772229488 pbc="F F F"
V        0.00000000       0.00000000       0.00000000       0.00000000       0.00000000    -113.50515747
V        0.00000000       0.00000000       1.29696970       0.00000000       0.00000000     113.50515747
2
Properties=species:S:1:pos:R:3:forces:R:3 energy=-1.2205137371879373 pbc="F F F"
V        0.00000000       0.00000000       0.00000000       0.00000000       0.00000000     -71.26985168
V        0.00000000       0.00000000       1.35575758       0.00000000       0.00000000      71.26985168
2
Properties=species:S:1:pos:R:3:forces:R:3 energy=-4.575663525110037 pbc="F F F"
V        0.00000000       0.00000000       0.00000000       0.00000000       0.00000000     -45.05456924
V        0.00000000       0.00000000       1.41454545       0.00000000       0.00000000      45.05456924
2
Properties=species:S:1:pos:R:3:forces:R:3 energy=-6.712964335848194 pbc="F F F"
V        0.00000000       0.00000000       0.00000000       0.00000000       0.00000000     -28.90135574
V        0.00000000       0.00000000       1.47333333       0.00000000       0.00000000      28.90135574
2
Properties=species:S:1:pos:R:3:forces:R:3 energy=-8.088457302721364 pbc="F F F"
V        0.00000000       0.00000000       0.00000000       0.00000000       0.00000000     -18.65868187
V        0.00000000       0.00000000       1.53212121       0.00000000       0.00000000      18.65868187
2
Properties=species:S:1:pos:R:3:forces:R:3 energy=-8.977954823531359 pbc="F F F"
V        0.00000000       0.00000000       0.00000000       0.00000000       0.00000000     -12.07528019
V        0.00000000       0.00000000       1.59090909       0.00000000       0.00000000      12.07528019
2
Properties=species:S:1:pos:R:3:forces:R:3 energy=-9.55214476548742 pbc="F F F"
V        0.00000000       0.00000000       0.00000000       0.00000000       0.00000000      -7.74876404
V        0.00000000       0.00000000       1.64969697       0.00000000       0.00000000       7.74876404
2
Properties=species:S:1:pos:R:3:forces:R:3 energy=-9.915079336440536 pbc="F F F"
V        0.00000000       0.00000000       0.00000000       0.00000000       0.00000000      -4.76284075
V        0.00000000       0.00000000       1.70848485       0.00000000       0.00000000       4.76284075
2
Properties=species:S:1:pos:R:3:forces:R:3 energy=-10.12702008537206 pbc="F F F"
V        0.00000000       0.00000000       0.00000000       0.00000000       0.00000000      -2.54937363
V        0.00000000       0.00000000       1.76727273       0.00000000       0.00000000       2.54937363
2
Properties=species:S:1:pos:R:3:forces:R:3 energy=-10.22527177647526 pbc="F F F"
V        0.00000000       0.00000000       0.00000000       0.00000000       0.00000000      -0.87054396
V        0.00000000       0.00000000       1.82606061       0.00000000       0.00000000       0.87054396
2
Properties=species:S:1:pos:R:3:forces:R:3 energy=-10.236891116452183 pbc="F F F"
V        0.00000000       0.00000000       0.00000000       0.00000000       0.00000000       0.42546937
V        0.00000000       0.00000000       1.88484848       0.00000000       0.00000000      -0.42546937
2
Properties=species:S:1:pos:R:3:forces:R:3 energy=-10.179824110842455 pbc="F F F"
V        0.00000000       0.00000000       0.00000000       0.00000000       0.00000000       1.48362994
V        0.00000000       0.00000000       1.94363636       0.00000000       0.00000000      -1.48362994
2
Properties=species:S:1:pos:R:3:forces:R:3 energy=-10.066222122669942 pbc="F F F"
V        0.00000000       0.00000000       0.00000000       0.00000000       0.00000000       2.34653664
V        0.00000000       0.00000000       2.00242424       0.00000000       0.00000000      -2.34653664
2
Properties=species:S:1:pos:R:3:forces:R:3 energy=-9.908542612416156 pbc="F F F"
V        0.00000000       0.00000000       0.00000000       0.00000000       0.00000000       2.97358918
V        0.00000000       0.00000000       2.06121212       0.00000000       0.00000000      -2.97358918
2
Properties=species:S:1:pos:R:3:forces:R:3 energy=-9.722329336079392 pbc="F F F"
V        0.00000000       0.00000000       0.00000000       0.00000000       0.00000000       3.30920839
V        0.00000000       0.00000000       2.12000000       0.00000000       0.00000000      -3.30920839
2
Properties=species:S:1:pos:R:3:forces:R:3 energy=-9.525772498254545 pbc="F F F"
V        0.00000000       0.00000000       0.00000000       0.00000000       0.00000000       3.32457519
V        0.00000000       0.00000000       2.17878788       0.00000000       0.00000000      -3.32457519
2
Properties=species:S:1:pos:R:3:forces:R:3 energy=-9.337239945441977 pbc="F F F"
V        0.00000000       0.00000000       0.00000000       0.00000000       0.00000000       3.04611111
V        0.00000000       0.00000000       2.23757576       0.00000000       0.00000000      -3.04611111
2
Properties=species:S:1:pos:R:3:forces:R:3 energy=-9.171720403703027 pbc="F F F"
V        0.00000000       0.00000000       0.00000000       0.00000000       0.00000000       2.55978632
V        0.00000000       0.00000000       2.29636364       0.00000000       0.00000000      -2.55978632
2
Properties=species:S:1:pos:R:3:forces:R:3 energy=-9.038037744337528 pbc="F F F"
V        0.00000000       0.00000000       0.00000000       0.00000000       0.00000000       1.98297334
V        0.00000000       0.00000000       2.35515152       0.00000000       0.00000000      -1.98297334
2
Properties=species:S:1:pos:R:3:forces:R:3 energy=-8.938181572607286 pbc="F F F"
V        0.00000000       0.00000000       0.00000000       0.00000000       0.00000000       1.42468417
V        0.00000000       0.00000000       2.41393939       0.00000000       0.00000000      -1.42468417
2
Properties=species:S:1:pos:R:3:forces:R:3 energy=-8.868664503783071 pbc="F F F"
V        0.00000000       0.00000000       0.00000000       0.00000000       0.00000000       0.96011436
V        0.00000000       0.00000000       2.47272727       0.00000000       0.00000000      -0.96011436
2
Properties=species:S:1:pos:R:3:forces:R:3 energy=-8.822730707945633 pbc="F F F"
V        0.00000000       0.00000000       0.00000000       0.00000000       0.00000000       0.62539357
V        0.00000000       0.00000000       2.53151515       0.00000000       0.00000000      -0.62539357
2
Properties=species:S:1:pos:R:3:forces:R:3 energy=-8.792508313436144 pbc="F F F"
V        0.00000000       0.00000000       0.00000000       0.00000000       0.00000000       0.42390040
V        0.00000000       0.00000000       2.59030303       0.00000000       0.00000000      -0.42390040
2
Properties=species:S:1:pos:R:3:forces:R:3 energy=-8.7706570495371 pbc="F F F"
V        0.00000000       0.00000000       0.00000000       0.00000000       0.00000000       0.33596361
V        0.00000000       0.00000000       2.64909091       0.00000000       0.00000000      -0.33596361
2
Properties=species:S:1:pos:R:3:forces:R:3 energy=-8.751415540352614 pbc="F F F"
V        0.00000000       0.00000000       0.00000000       0.00000000       0.00000000       0.32921082
V        0.00000000       0.00000000       2.70787879       0.00000000       0.00000000      -0.32921082
2
Properties=species:S:1:pos:R:3:forces:R:3 energy=-8.731018704337854 pbc="F F F"
V        0.00000000       0.00000000       0.00000000       0.00000000       0.00000000       0.37045443
V        0.00000000       0.00000000       2.76666667       0.00000000       0.00000000      -0.37045443
2
Properties=species:S:1:pos:R:3:forces:R:3 energy=-8.707318669145778 pbc="F F F"
V        0.00000000       0.00000000       0.00000000       0.00000000       0.00000000       0.44007593
V        0.00000000       0.00000000       2.82545455       0.00000000       0.00000000      -0.44007593
2
Properties=species:S:1:pos:R:3:forces:R:3 energy=-8.678690895231549 pbc="F F F"
V        0.00000000       0.00000000       0.00000000       0.00000000       0.00000000       0.53967118
V        0.00000000       0.00000000       2.88424242       0.00000000       0.00000000      -0.53967118
2
Properties=species:S:1:pos:R:3:forces:R:3 energy=-8.643219880147537 pbc="F F F"
V        0.00000000       0.00000000       0.00000000       0.00000000       0.00000000       0.67097414
V        0.00000000       0.00000000       2.94303030       0.00000000       0.00000000      -0.67097414
2
Properties=species:S:1:pos:R:3:forces:R:3 energy=-8.599732587002118 pbc="F F F"
V        0.00000000       0.00000000       0.00000000       0.00000000       0.00000000       0.80540234
V        0.00000000       0.00000000       3.00181818       0.00000000       0.00000000      -0.80540234
2
Properties=species:S:1:pos:R:3:forces:R:3 energy=-8.549199481576034 pbc="F F F"
V        0.00000000       0.00000000       0.00000000       0.00000000       0.00000000       0.90655559
V        0.00000000       0.00000000       3.06060606       0.00000000       0.00000000      -0.90655559
2
Properties=species:S:1:pos:R:3:forces:R:3 energy=-8.493973425777156 pbc="F F F"
V        0.00000000       0.00000000       0.00000000       0.00000000       0.00000000       0.96603662
V        0.00000000       0.00000000       3.11939394       0.00000000       0.00000000      -0.96603662
2
Properties=species:S:1:pos:R:3:forces:R:3 energy=-8.436219284157136 pbc="F F F"
V        0.00000000       0.00000000       0.00000000       0.00000000       0.00000000       0.99472612
V        0.00000000       0.00000000       3.17818182       0.00000000       0.00000000      -0.99472612
2
Properties=species:S:1:pos:R:3:forces:R:3 energy=-8.377403894431891 pbc="F F F"
V        0.00000000       0.00000000       0.00000000       0.00000000       0.00000000       1.00352085
V        0.00000000       0.00000000       3.23696970       0.00000000       0.00000000      -1.00352085
2
Properties=species:S:1:pos:R:3:forces:R:3 energy=-8.318507578927033 pbc="F F F"
V        0.00000000       0.00000000       0.00000000       0.00000000       0.00000000       0.99801105
V        0.00000000       0.00000000       3.29575758       0.00000000       0.00000000      -0.99801105
2
Properties=species:S:1:pos:R:3:forces:R:3 energy=-8.260299831362858 pbc="F F F"
V        0.00000000       0.00000000       0.00000000       0.00000000       0.00000000       0.98033226
V        0.00000000       0.00000000       3.35454545       0.00000000       0.00000000      -0.98033226
2
Properties=species:S:1:pos:R:3:forces:R:3 energy=-8.203459765386558 pbc="F F F"
V        0.00000000       0.00000000       0.00000000       0.00000000       0.00000000       0.95165020
V        0.00000000       0.00000000       3.41333333       0.00000000       0.00000000      -0.95165020
2
Properties=species:S:1:pos:R:3:forces:R:3 energy=-8.148590672734693 pbc="F F F"
V        0.00000000       0.00000000       0.00000000       0.00000000       0.00000000       0.91370732
V        0.00000000       0.00000000       3.47212121       0.00000000       0.00000000      -0.91370732
2
Properties=species:S:1:pos:R:3:forces:R:3 energy=-8.096158000486493 pbc="F F F"
V        0.00000000       0.00000000       0.00000000       0.00000000       0.00000000       0.86931014
V        0.00000000       0.00000000       3.53090909       0.00000000       0.00000000      -0.86931014
2
Properties=species:S:1:pos:R:3:forces:R:3 energy=-8.046439764031824 pbc="F F F"
V        0.00000000       0.00000000       0.00000000       0.00000000       0.00000000       0.82189715
V        0.00000000       0.00000000       3.58969697       0.00000000       0.00000000      -0.82189715
2
Properties=species:S:1:pos:R:3:forces:R:3 energy=-7.999517281096888 pbc="F F F"
V        0.00000000       0.00000000       0.00000000       0.00000000       0.00000000       0.77470183
V        0.00000000       0.00000000       3.64848485       0.00000000       0.00000000      -0.77470183
2
Properties=species:S:1:pos:R:3:forces:R:3 energy=-7.955304369524799 pbc="F F F"
V        0.00000000       0.00000000       0.00000000       0.00000000       0.00000000       0.72999823
V        0.00000000       0.00000000       3.70727273       0.00000000       0.00000000      -0.72999823
2
Properties=species:S:1:pos:R:3:forces:R:3 energy=-7.913616952829394 pbc="F F F"
V        0.00000000       0.00000000       0.00000000       0.00000000       0.00000000       0.68881857
V        0.00000000       0.00000000       3.76606061       0.00000000       0.00000000      -0.68881857
2
Properties=species:S:1:pos:R:3:forces:R:3 energy=-7.874247459463201 pbc="F F F"
V        0.00000000       0.00000000       0.00000000       0.00000000       0.00000000       0.65110135
V        0.00000000       0.00000000       3.82484848       0.00000000       0.00000000      -0.65110135
2
Properties=species:S:1:pos:R:3:forces:R:3 energy=-7.837010101676696 pbc="F F F"
V        0.00000000       0.00000000       0.00000000       0.00000000       0.00000000       0.61609358
V        0.00000000       0.00000000       3.88363636       0.00000000       0.00000000      -0.61609358
2
Properties=species:S:1:pos:R:3:forces:R:3 energy=-7.8017766969898075 pbc="F F F"
V        0.00000000       0.00000000       0.00000000       0.00000000       0.00000000       0.58277363
V        0.00000000       0.00000000       3.94242424       0.00000000       0.00000000      -0.58277363
2
Properties=species:S:1:pos:R:3:forces:R:3 energy=-7.768477162372168 pbc="F F F"
V        0.00000000       0.00000000       0.00000000       0.00000000       0.00000000       0.55014998
V        0.00000000       0.00000000       4.00121212       0.00000000       0.00000000      -0.55014998
2
Properties=species:S:1:pos:R:3:forces:R:3 energy=-7.737093996601671 pbc="F F F"
V        0.00000000       0.00000000       0.00000000       0.00000000       0.00000000       0.51744515
V        0.00000000       0.00000000       4.06000000       0.00000000       0.00000000      -0.51744515
2
Properties=species:S:1:pos:R:3:forces:R:3 energy=-7.707649372319144 pbc="F F F"
V        0.00000000       0.00000000       0.00000000       0.00000000       0.00000000       0.48417413
V        0.00000000       0.00000000       4.11878788       0.00000000       0.00000000      -0.48417413
2
Properties=species:S:1:pos:R:3:forces:R:3 energy=-7.680181493903077 pbc="F F F"
V        0.00000000       0.00000000       0.00000000       0.00000000       0.00000000       0.45015851
V        0.00000000       0.00000000       4.17757576       0.00000000       0.00000000      -0.45015851
2
Properties=species:S:1:pos:R:3:forces:R:3 energy=-7.654733647558087 pbc="F F F"
V        0.00000000       0.00000000       0.00000000       0.00000000       0.00000000       0.41551447
V        0.00000000       0.00000000       4.23636364       0.00000000       0.00000000      -0.41551447
2
Properties=species:S:1:pos:R:3:forces:R:3 energy=-7.6313320197155114 pbc="F F F"
V        0.00000000       0.00000000       0.00000000       0.00000000       0.00000000       0.38061818
V        0.00000000       0.00000000       4.29515152       0.00000000       0.00000000      -0.38061818
2
Properties=species:S:1:pos:R:3:forces:R:3 energy=-7.6099760462486445 pbc="F F F"
V        0.00000000       0.00000000       0.00000000       0.00000000       0.00000000       0.34604701
V        0.00000000       0.00000000       4.35393939       0.00000000       0.00000000      -0.34604701
2
Properties=species:S:1:pos:R:3:forces:R:3 energy=-7.5906260417130405 pbc="F F F"
V        0.00000000       0.00000000       0.00000000       0.00000000       0.00000000       0.31249049
V        0.00000000       0.00000000       4.41272727       0.00000000       0.00000000      -0.31249049
2
Properties=species:S:1:pos:R:3:forces:R:3 energy=-7.573200503050313 pbc="F F F"
V        0.00000000       0.00000000       0.00000000       0.00000000       0.00000000       0.28066853
V        0.00000000       0.00000000       4.47151515       0.00000000       0.00000000      -0.28066853
2
Properties=species:S:1:pos:R:3:forces:R:3 energy=-7.557579092652166 pbc="F F F"
V        0.00000000       0.00000000       0.00000000       0.00000000       0.00000000       0.25122046
V        0.00000000       0.00000000       4.53030303       0.00000000       0.00000000      -0.25122046
2
Properties=species:S:1:pos:R:3:forces:R:3 energy=-7.543607229333931 pbc="F F F"
V        0.00000000       0.00000000       0.00000000       0.00000000       0.00000000       0.22461903
V        0.00000000       0.00000000       4.58909091       0.00000000       0.00000000      -0.22461903
2
Properties=species:S:1:pos:R:3:forces:R:3 energy=-7.531108620813048 pbc="F F F"
V        0.00000000       0.00000000       0.00000000       0.00000000       0.00000000       0.20110765
V        0.00000000       0.00000000       4.64787879       0.00000000       0.00000000      -0.20110765
2
Properties=species:S:1:pos:R:3:forces:R:3 energy=-7.519901476172446 pbc="F F F"
V        0.00000000       0.00000000       0.00000000       0.00000000       0.00000000       0.18065390
V        0.00000000       0.00000000       4.70666667       0.00000000       0.00000000      -0.18065390
2
Properties=species:S:1:pos:R:3:forces:R:3 energy=-7.509813409853525 pbc="F F F"
V        0.00000000       0.00000000       0.00000000       0.00000000       0.00000000       0.16297340
V        0.00000000       0.00000000       4.76545455       0.00000000       0.00000000      -0.16297340
2
Properties=species:S:1:pos:R:3:forces:R:3 energy=-7.500695244591162 pbc="F F F"
V        0.00000000       0.00000000       0.00000000       0.00000000       0.00000000       0.14755899
V        0.00000000       0.00000000       4.82424242       0.00000000       0.00000000      -0.14755899
2
Properties=species:S:1:pos:R:3:forces:R:3 energy=-7.492432240093609 pbc="F F F"
V        0.00000000       0.00000000       0.00000000       0.00000000       0.00000000       0.13379200
V        0.00000000       0.00000000       4.88303030       0.00000000       0.00000000      -0.13379200
2
Properties=species:S:1:pos:R:3:forces:R:3 energy=-7.484944462173693 pbc="F F F"
V        0.00000000       0.00000000       0.00000000       0.00000000       0.00000000       0.12106970
V        0.00000000       0.00000000       4.94181818       0.00000000       0.00000000      -0.12106970
2
Properties=species:S:1:pos:R:3:forces:R:3 energy=-7.478185298384366 pbc="F F F"
V        0.00000000       0.00000000       0.00000000       0.00000000       0.00000000       0.10896078
V        0.00000000       0.00000000       5.00060606       0.00000000       0.00000000      -0.10896078
2
Properties=species:S:1:pos:R:3:forces:R:3 energy=-7.4721243615730994 pbc="F F F"
V        0.00000000       0.00000000       0.00000000       0.00000000       0.00000000       0.09730855
V        0.00000000       0.00000000       5.05939394       0.00000000       0.00000000      -0.09730855
2
Properties=species:S:1:pos:R:3:forces:R:3 energy=-7.466732028352199 pbc="F F F"
V        0.00000000       0.00000000       0.00000000       0.00000000       0.00000000       0.08627276
V        0.00000000       0.00000000       5.11818182       0.00000000       0.00000000      -0.08627276
2
Properties=species:S:1:pos:R:3:forces:R:3 energy=-7.461960991337282 pbc="F F F"
V        0.00000000       0.00000000       0.00000000       0.00000000       0.00000000       0.07626093
V        0.00000000       0.00000000       5.17696970       0.00000000       0.00000000      -0.07626093
2
Properties=species:S:1:pos:R:3:forces:R:3 energy=-7.457735765561969 pbc="F F F"
V        0.00000000       0.00000000       0.00000000       0.00000000       0.00000000       0.06777047
V        0.00000000       0.00000000       5.23575758       0.00000000       0.00000000      -0.06777047
2
Properties=species:S:1:pos:R:3:forces:R:3 energy=-7.45395610870137 pbc="F F F"
V        0.00000000       0.00000000       0.00000000       0.00000000       0.00000000       0.06115513
V        0.00000000       0.00000000       5.29454545       0.00000000       0.00000000      -0.06115513
2
Properties=species:S:1:pos:R:3:forces:R:3 energy=-7.450511389543276 pbc="F F F"
V        0.00000000       0.00000000       0.00000000       0.00000000       0.00000000       0.05624810
V        0.00000000       0.00000000       5.35333333       0.00000000       0.00000000      -0.05624810
2
Properties=species:S:1:pos:R:3:forces:R:3 energy=-7.44733210224035 pbc="F F F"
V        0.00000000       0.00000000       0.00000000       0.00000000       0.00000000       0.05183050
V        0.00000000       0.00000000       5.41212121       0.00000000       0.00000000      -0.05183050
2
Properties=species:S:1:pos:R:3:forces:R:3 energy=-7.44444393264269 pbc="F F F"
V        0.00000000       0.00000000       0.00000000       0.00000000       0.00000000       0.04614610
V        0.00000000       0.00000000       5.47090909       0.00000000       0.00000000      -0.04614610
2
Properties=species:S:1:pos:R:3:forces:R:3 energy=-7.441918198911603 pbc="F F F"
V        0.00000000       0.00000000       0.00000000       0.00000000       0.00000000       0.03996532
V        0.00000000       0.00000000       5.52969697       0.00000000       0.00000000      -0.03996532
2
Properties=species:S:1:pos:R:3:forces:R:3 energy=-7.439703095515104 pbc="F F F"
V        0.00000000       0.00000000       0.00000000       0.00000000       0.00000000       0.03575163
V        0.00000000       0.00000000       5.58848485       0.00000000       0.00000000      -0.03575163
2
Properties=species:S:1:pos:R:3:forces:R:3 energy=-7.437691610012823 pbc="F F F"
V        0.00000000       0.00000000       0.00000000       0.00000000       0.00000000       0.03268398
V        0.00000000       0.00000000       5.64727273       0.00000000       0.00000000      -0.03268398
2
Properties=species:S:1:pos:R:3:forces:R:3 energy=-7.435876921284428 pbc="F F F"
V        0.00000000       0.00000000       0.00000000       0.00000000       0.00000000       0.02882476
V        0.00000000       0.00000000       5.70606061       0.00000000       0.00000000      -0.02882476
2
Properties=species:S:1:pos:R:3:forces:R:3 energy=-7.434323421752832 pbc="F F F"
V        0.00000000       0.00000000       0.00000000       0.00000000       0.00000000       0.02404561
V        0.00000000       0.00000000       5.76484848       0.00000000       0.00000000      -0.02404561
2
Properties=species:S:1:pos:R:3:forces:R:3 energy=-7.433011905282802 pbc="F F F"
V        0.00000000       0.00000000       0.00000000       0.00000000       0.00000000       0.02106601
V        0.00000000       0.00000000       5.82363636       0.00000000       0.00000000      -0.02106601
2
Properties=species:S:1:pos:R:3:forces:R:3 energy=-7.43179989307825 pbc="F F F"
V        0.00000000       0.00000000       0.00000000       0.00000000       0.00000000       0.02035193
V        0.00000000       0.00000000       5.88242424       0.00000000       0.00000000      -0.02035193
2
Properties=species:S:1:pos:R:3:forces:R:3 energy=-7.4306158616289055 pbc="F F F"
V        0.00000000       0.00000000       0.00000000       0.00000000       0.00000000       0.01987807
V        0.00000000       0.00000000       5.94121212       0.00000000       0.00000000      -0.01987807
2
Properties=species:S:1:pos:R:3:forces:R:3 energy=-7.429470718480337 pbc="F F F"
V        0.00000000       0.00000000       0.00000000       0.00000000       0.00000000       0.01901128
V        0.00000000       0.00000000       6.00000000       0.00000000       0.00000000      -0.01901128
