2
Properties=species:S:1:pos:R:3:forces:R:3 energy=48668.806248182176 pbc="F F F"
Xe       0.00000000       0.00000000       0.00000000       0.00000000       0.00000000 -1160122.12500000
Xe       0.00000000       0.00000000       0.10000000       0.00000000       0.00000000 1160122.12500000
2
Properties=species:S:1:pos:R:3:forces:R:3 energy=14753.006443494676 pbc="F F F"
Xe       0.00000000       0.00000000       0.00000000       0.00000000       0.00000000 -249630.17187500
Xe       0.00000000       0.00000000       0.15959596       0.00000000       0.00000000  249630.17187500
2
Properties=species:S:1:pos:R:3:forces:R:3 energy=6173.418064588426 pbc="F F F"
Xe       0.00000000       0.00000000       0.00000000       0.00000000       0.00000000  -77399.35156250
Xe       0.00000000       0.00000000       0.21919192       0.00000000       0.00000000   77399.35156250
2
Properties=species:S:1:pos:R:3:forces:R:3 energy=3259.233250138469 pbc="F F F"
Xe       0.00000000       0.00000000       0.00000000       0.00000000       0.00000000  -29263.19921875
Xe       0.00000000       0.00000000       0.27878788       0.00000000       0.00000000   29263.19921875
2
Properties=species:S:1:pos:R:3:forces:R:3 energy=2099.0823712353867 pbc="F F F"
Xe       0.00000000       0.00000000       0.00000000       0.00000000       0.00000000  -12320.05078125
Xe       0.00000000       0.00000000       0.33838384       0.00000000       0.00000000   12320.05078125
2
Properties=species:S:1:pos:R:3:forces:R:3 energy=1599.89572573391 pbc="F F F"
Xe       0.00000000       0.00000000       0.00000000       0.00000000       0.00000000   -5374.80957031
Xe       0.00000000       0.00000000       0.39797980       0.00000000       0.00000000    5374.80957031
2
Properties=species:S:1:pos:R:3:forces:R:3 energy=1386.8064923513116 pbc="F F F"
Xe       0.00000000       0.00000000       0.00000000       0.00000000       0.00000000   -2149.86279297
Xe       0.00000000       0.00000000       0.45757576       0.00000000       0.00000000    2149.86279297
2
Properties=species:S:1:pos:R:3:forces:R:3 energy=1314.1037335939272 pbc="F F F"
Xe       0.00000000       0.00000000       0.00000000       0.00000000       0.00000000    -451.50039673
Xe       0.00000000       0.00000000       0.51717172       0.00000000       0.00000000     451.50039673
2
Properties=species:S:1:pos:R:3:forces:R:3 energy=1318.8316389243855 pbc="F F F"
Xe       0.00000000       0.00000000       0.00000000       0.00000000       0.00000000     485.27786255
Xe       0.00000000       0.00000000       0.57676768       0.00000000       0.00000000    -485.27786255
2
Properties=species:S:1:pos:R:3:forces:R:3 energy=1358.0599105037952 pbc="F F F"
Xe       0.00000000       0.00000000       0.00000000       0.00000000       0.00000000     863.05688477
Xe       0.00000000       0.00000000       0.63636364       0.00000000       0.00000000    -863.05688477
2
Properties=species:S:1:pos:R:3:forces:R:3 energy=1416.0737046011632 pbc="F F F"
Xe       0.00000000       0.00000000       0.00000000       0.00000000       0.00000000    1007.44195557
Xe       0.00000000       0.00000000       0.69595960       0.00000000       0.00000000   -1007.44195557
2
Properties=species:S:1:pos:R:3:forces:R:3 energy=1493.1636706622303 pbc="F F F"
Xe       0.00000000       0.00000000       0.00000000       0.00000000       0.00000000    1420.84606934
Xe       0.00000000       0.00000000       0.75555556       0.00000000       0.00000000   -1420.84606934
2
Properties=species:S:1:pos:R:3:forces:R:3 energy=1593.6912589013157 pbc="F F F"
Xe       0.00000000       0.00000000       0.00000000       0.00000000       0.00000000    2197.34692383
Xe       0.00000000       0.00000000       0.81515152       0.00000000       0.00000000   -2197.34692383
2
Properties=species:S:1:pos:R:3:forces:R:3 energy=1683.5770016020028 pbc="F F F"
Xe       0.00000000       0.00000000       0.00000000       0.00000000       0.00000000     269.54406738
Xe       0.00000000       0.00000000       0.87474747       0.00000000       0.00000000    -269.54406738
2
Properties=species:S:1:pos:R:3:forces:R:3 energy=1623.7315433398912 pbc="F F F"
Xe       0.00000000       0.00000000       0.00000000       0.00000000       0.00000000   -2036.21142578
Xe       0.00000000       0.00000000       0.93434343       0.00000000       0.00000000    2036.21142578
2
Properties=species:S:1:pos:R:3:forces:R:3 energy=1468.6119154346732 pbc="F F F"
Xe       0.00000000       0.00000000       0.00000000       0.00000000       0.00000000   -2984.07299805
Xe       0.00000000       0.00000000       0.99393939       0.00000000       0.00000000    2984.07299805
2
Properties=species:S:1:pos:R:3:forces:R:3 energy=1281.362649212376 pbc="F F F"
Xe       0.00000000       0.00000000       0.00000000       0.00000000       0.00000000   -3249.69897461
Xe       0.00000000       0.00000000       1.05353535       0.00000000       0.00000000    3249.69897461
2
Properties=species:S:1:pos:R:3:forces:R:3 energy=1087.0510055197255 pbc="F F F"
Xe       0.00000000       0.00000000       0.00000000       0.00000000       0.00000000   -3218.01586914
Xe       0.00000000       0.00000000       1.11313131       0.00000000       0.00000000    3218.01586914
2
Properties=species:S:1:pos:R:3:forces:R:3 energy=897.5863472669 pbc="F F F"
Xe       0.00000000       0.00000000       0.00000000       0.00000000       0.00000000   -3156.12109375
Xe       0.00000000       0.00000000       1.17272727       0.00000000       0.00000000    3156.12109375
2
Properties=species:S:1:pos:R:3:forces:R:3 energy=711.5932473408542 pbc="F F F"
Xe       0.00000000       0.00000000       0.00000000       0.00000000       0.00000000   -3073.94824219
Xe       0.00000000       0.00000000       1.23232323       0.00000000       0.00000000    3073.94824219
2
Properties=species:S:1:pos:R:3:forces:R:3 energy=533.4201556260173 pbc="F F F"
Xe       0.00000000       0.00000000       0.00000000       0.00000000       0.00000000   -2886.37133789
Xe       0.00000000       0.00000000       1.29191919       0.00000000       0.00000000    2886.37133789
2
Properties=species:S:1:pos:R:3:forces:R:3 energy=372.74962846163453 pbc="F F F"
Xe       0.00000000       0.00000000       0.00000000       0.00000000       0.00000000   -2457.06518555
Xe       0.00000000       0.00000000       1.35151515       0.00000000       0.00000000    2457.06518555
2
Properties=species:S:1:pos:R:3:forces:R:3 energy=243.44732770321863 pbc="F F F"
Xe       0.00000000       0.00000000       0.00000000       0.00000000       0.00000000   -1868.11950684
Xe       0.00000000       0.00000000       1.41111111       0.00000000       0.00000000    1868.11950684
2
Properties=species:S:1:pos:R:3:forces:R:3 energy=152.57518903850342 pbc="F F F"
Xe       0.00000000       0.00000000       0.00000000       0.00000000       0.00000000   -1200.92138672
Xe       0.00000000       0.00000000       1.47070707       0.00000000       0.00000000    1200.92138672
2
Properties=species:S:1:pos:R:3:forces:R:3 energy=94.2075917325494 pbc="F F F"
Xe       0.00000000       0.00000000       0.00000000       0.00000000       0.00000000    -767.25500488
Xe       0.00000000       0.00000000       1.53030303       0.00000000       0.00000000     767.25500488
2
Properties=species:S:1:pos:R:3:forces:R:3 energy=59.223476716092364 pbc="F F F"
Xe       0.00000000       0.00000000       0.00000000       0.00000000       0.00000000    -431.41458130
Xe       0.00000000       0.00000000       1.58989899       0.00000000       0.00000000     431.41458130
2
Properties=species:S:1:pos:R:3:forces:R:3 energy=39.78621643757629 pbc="F F F"
Xe       0.00000000       0.00000000       0.00000000       0.00000000       0.00000000    -242.33703613
Xe       0.00000000       0.00000000       1.64949495       0.00000000       0.00000000     242.33703613
2
Properties=species:S:1:pos:R:3:forces:R:3 energy=28.444507858440627 pbc="F F F"
Xe       0.00000000       0.00000000       0.00000000       0.00000000       0.00000000    -149.26904297
Xe       0.00000000       0.00000000       1.70909091       0.00000000       0.00000000     149.26904297
2
Properties=species:S:1:pos:R:3:forces:R:3 energy=21.11161671697621 pbc="F F F"
Xe       0.00000000       0.00000000       0.00000000       0.00000000       0.00000000    -101.53630066
Xe       0.00000000       0.00000000       1.76868687       0.00000000       0.00000000     101.53630066
2
Properties=species:S:1:pos:R:3:forces:R:3 energy=15.96726543150554 pbc="F F F"
Xe       0.00000000       0.00000000       0.00000000       0.00000000       0.00000000     -73.18961334
Xe       0.00000000       0.00000000       1.82828283       0.00000000       0.00000000      73.18961334
2
Properties=species:S:1:pos:R:3:forces:R:3 energy=12.209177067422775 pbc="F F F"
Xe       0.00000000       0.00000000       0.00000000       0.00000000       0.00000000     -54.03266144
Xe       0.00000000       0.00000000       1.88787879       0.00000000       0.00000000      54.03266144
2
Properties=species:S:1:pos:R:3:forces:R:3 energy=9.422343808405136 pbc="F F F"
Xe       0.00000000       0.00000000       0.00000000       0.00000000       0.00000000     -40.20660019
Xe       0.00000000       0.00000000       1.94747475       0.00000000       0.00000000      40.20660019
2
Properties=species:S:1:pos:R:3:forces:R:3 energy=7.344686266513533 pbc="F F F"
Xe       0.00000000       0.00000000       0.00000000       0.00000000       0.00000000     -30.03376961
Xe       0.00000000       0.00000000       2.00707071       0.00000000       0.00000000      30.03376961
2
Properties=species:S:1:pos:R:3:forces:R:3 energy=5.789610362496613 pbc="F F F"
Xe       0.00000000       0.00000000       0.00000000       0.00000000       0.00000000     -22.53540230
Xe       0.00000000       0.00000000       2.06666667       0.00000000       0.00000000      22.53540230
2
Properties=species:S:1:pos:R:3:forces:R:3 energy=4.619384092575921 pbc="F F F"
Xe       0.00000000       0.00000000       0.00000000       0.00000000       0.00000000     -17.01957703
Xe       0.00000000       0.00000000       2.12626263       0.00000000       0.00000000      17.01957703
2
Properties=species:S:1:pos:R:3:forces:R:3 energy=3.731943450614065 pbc="F F F"
Xe       0.00000000       0.00000000       0.00000000       0.00000000       0.00000000     -12.97131157
Xe       0.00000000       0.00000000       2.18585859       0.00000000       0.00000000      12.97131157
2
Properties=species:S:1:pos:R:3:forces:R:3 energy=3.051923823753359 pbc="F F F"
Xe       0.00000000       0.00000000       0.00000000       0.00000000       0.00000000     -10.00287247
Xe       0.00000000       0.00000000       2.24545455       0.00000000       0.00000000      10.00287247
2
Properties=species:S:1:pos:R:3:forces:R:3 energy=2.524061071493853 pbc="F F F"
Xe       0.00000000       0.00000000       0.00000000       0.00000000       0.00000000      -7.82318830
Xe       0.00000000       0.00000000       2.30505051       0.00000000       0.00000000       7.82318830
2
Properties=species:S:1:pos:R:3:forces:R:3 energy=2.1081365623079322 pbc="F F F"
Xe       0.00000000       0.00000000       0.00000000       0.00000000       0.00000000      -6.21556568
Xe       0.00000000       0.00000000       2.36464646       0.00000000       0.00000000       6.21556568
2
Properties=species:S:1:pos:R:3:forces:R:3 energy=1.7750532774976404 pbc="F F F"
Xe       0.00000000       0.00000000       0.00000000       0.00000000       0.00000000      -5.02038765
Xe       0.00000000       0.00000000       2.42424242       0.00000000       0.00000000       5.02038765
2
Properties=species:S:1:pos:R:3:forces:R:3 energy=1.5038763403792266 pbc="F F F"
Xe       0.00000000       0.00000000       0.00000000       0.00000000       0.00000000      -4.12172651
Xe       0.00000000       0.00000000       2.48383838       0.00000000       0.00000000       4.12172651
2
Properties=species:S:1:pos:R:3:forces:R:3 energy=1.2795599113752343 pbc="F F F"
Xe       0.00000000       0.00000000       0.00000000       0.00000000       0.00000000      -3.43615985
Xe       0.00000000       0.00000000       2.54343434       0.00000000       0.00000000       3.43615985
2
Properties=species:S:1:pos:R:3:forces:R:3 energy=1.0912837479237558 pbc="F F F"
Xe       0.00000000       0.00000000       0.00000000       0.00000000       0.00000000      -2.90379572
Xe       0.00000000       0.00000000       2.60303030       0.00000000       0.00000000       2.90379572
2
Properties=species:S:1:pos:R:3:forces:R:3 energy=0.9312718499224485 pbc="F F F"
Xe       0.00000000       0.00000000       0.00000000       0.00000000       0.00000000      -2.48147750
Xe       0.00000000       0.00000000       2.66262626       0.00000000       0.00000000       2.48147750
2
Properties=species:S:1:pos:R:3:forces:R:3 energy=0.7939478708315595 pbc="F F F"
Xe       0.00000000       0.00000000       0.00000000       0.00000000       0.00000000      -2.13809037
Xe       0.00000000       0.00000000       2.72222222       0.00000000       0.00000000       2.13809037
2
Properties=species:S:1:pos:R:3:forces:R:3 energy=0.675306916396214 pbc="F F F"
Xe       0.00000000       0.00000000       0.00000000       0.00000000       0.00000000      -1.85141206
Xe       0.00000000       0.00000000       2.78181818       0.00000000       0.00000000       1.85141206
2
Properties=species:S:1:pos:R:3:forces:R:3 energy=0.5724573789971614 pbc="F F F"
Xe       0.00000000       0.00000000       0.00000000       0.00000000       0.00000000      -1.60608149
Xe       0.00000000       0.00000000       2.84141414       0.00000000       0.00000000       1.60608149
2
Properties=species:S:1:pos:R:3:forces:R:3 energy=0.48325674693555354 pbc="F F F"
Xe       0.00000000       0.00000000       0.00000000       0.00000000       0.00000000      -1.39205468
Xe       0.00000000       0.00000000       2.90101010       0.00000000       0.00000000       1.39205468
2
Properties=species:S:1:pos:R:3:forces:R:3 energy=0.40603606741528264 pbc="F F F"
Xe       0.00000000       0.00000000       0.00000000       0.00000000       0.00000000      -1.20325732
Xe       0.00000000       0.00000000       2.96060606       0.00000000       0.00000000       1.20325732
2
Properties=species:S:1:pos:R:3:forces:R:3 energy=0.3394047679658424 pbc="F F F"
Xe       0.00000000       0.00000000       0.00000000       0.00000000       0.00000000      -1.03629005
Xe       0.00000000       0.00000000       3.02020202       0.00000000       0.00000000       1.03629005
2
Properties=species:S:1:pos:R:3:forces:R:3 energy=0.2821236618270135 pbc="F F F"
Xe       0.00000000       0.00000000       0.00000000       0.00000000       0.00000000      -0.88921791
Xe       0.00000000       0.00000000       3.07979798       0.00000000       0.00000000       0.88921791
2
Properties=species:S:1:pos:R:3:forces:R:3 energy=0.2330491751323875 pbc="F F F"
Xe       0.00000000       0.00000000       0.00000000       0.00000000       0.00000000      -0.76065928
Xe       0.00000000       0.00000000       3.13939394       0.00000000       0.00000000       0.76065928
2
Properties=species:S:1:pos:R:3:forces:R:3 energy=0.19111880818976074 pbc="F F F"
Xe       0.00000000       0.00000000       0.00000000       0.00000000       0.00000000      -0.64924020
Xe       0.00000000       0.00000000       3.19898990       0.00000000       0.00000000       0.64924020
2
Properties=species:S:1:pos:R:3:forces:R:3 energy=0.15535532939704727 pbc="F F F"
Xe       0.00000000       0.00000000       0.00000000       0.00000000       0.00000000      -0.55340707
Xe       0.00000000       0.00000000       3.25858586       0.00000000       0.00000000       0.55340707
2
Properties=species:S:1:pos:R:3:forces:R:3 energy=0.12488127032032245 pbc="F F F"
Xe       0.00000000       0.00000000       0.00000000       0.00000000       0.00000000      -0.47145125
Xe       0.00000000       0.00000000       3.31818182       0.00000000       0.00000000       0.47145125
2
Properties=species:S:1:pos:R:3:forces:R:3 energy=0.09892141454171577 pbc="F F F"
Xe       0.00000000       0.00000000       0.00000000       0.00000000       0.00000000      -0.40162149
Xe       0.00000000       0.00000000       3.37777778       0.00000000       0.00000000       0.40162149
2
Properties=species:S:1:pos:R:3:forces:R:3 energy=0.07680402882809273 pbc="F F F"
Xe       0.00000000       0.00000000       0.00000000       0.00000000       0.00000000      -0.34222755
Xe       0.00000000       0.00000000       3.43737374       0.00000000       0.00000000       0.34222755
2
Properties=species:S:1:pos:R:3:forces:R:3 energy=0.05795423099938718 pbc="F F F"
Xe       0.00000000       0.00000000       0.00000000       0.00000000       0.00000000      -0.29171297
Xe       0.00000000       0.00000000       3.49696970       0.00000000       0.00000000       0.29171297
2
Properties=species:S:1:pos:R:3:forces:R:3 energy=0.04188520564106186 pbc="F F F"
Xe       0.00000000       0.00000000       0.00000000       0.00000000       0.00000000      -0.24868950
Xe       0.00000000       0.00000000       3.55656566       0.00000000       0.00000000       0.24868950
2
Properties=species:S:1:pos:R:3:forces:R:3 energy=0.0281876775486612 pbc="F F F"
Xe       0.00000000       0.00000000       0.00000000       0.00000000       0.00000000      -0.21195154
Xe       0.00000000       0.00000000       3.61616162       0.00000000       0.00000000       0.21195154
2
Properties=species:S:1:pos:R:3:forces:R:3 energy=0.016518414720987508 pbc="F F F"
Xe       0.00000000       0.00000000       0.00000000       0.00000000       0.00000000      -0.18046291
Xe       0.00000000       0.00000000       3.67575758       0.00000000       0.00000000       0.18046291
2
Properties=species:S:1:pos:R:3:forces:R:3 energy=0.006591250764455159 pbc="F F F"
Xe       0.00000000       0.00000000       0.00000000       0.00000000       0.00000000      -0.15334943
Xe       0.00000000       0.00000000       3.73535354       0.00000000       0.00000000       0.15334943
2
Properties=species:S:1:pos:R:3:forces:R:3 energy=-0.001831967562334648 pbc="F F F"
Xe       0.00000000       0.00000000       0.00000000       0.00000000       0.00000000      -0.12988055
Xe       0.00000000       0.00000000       3.79494949       0.00000000       0.00000000       0.12988055
2
Properties=species:S:1:pos:R:3:forces:R:3 energy=-0.008949914240958819 pbc="F F F"
Xe       0.00000000       0.00000000       0.00000000       0.00000000       0.00000000      -0.10945488
Xe       0.00000000       0.00000000       3.85454545       0.00000000       0.00000000       0.10945488
2
Properties=species:S:1:pos:R:3:forces:R:3 energy=-0.014928800944676995 pbc="F F F"
Xe       0.00000000       0.00000000       0.00000000       0.00000000       0.00000000      -0.09158577
Xe       0.00000000       0.00000000       3.91414141       0.00000000       0.00000000       0.09158577
2
Properties=species:S:1:pos:R:3:forces:R:3 energy=-0.019909219051770965 pbc="F F F"
Xe       0.00000000       0.00000000       0.00000000       0.00000000       0.00000000      -0.07588671
Xe       0.00000000       0.00000000       3.97373737       0.00000000       0.00000000       0.07588671
2
Properties=species:S:1:pos:R:3:forces:R:3 energy=-0.02401103002701097 pbc="F F F"
Xe       0.00000000       0.00000000       0.00000000       0.00000000       0.00000000      -0.06205925
Xe       0.00000000       0.00000000       4.03333333       0.00000000       0.00000000       0.06205925
2
Properties=species:S:1:pos:R:3:forces:R:3 energy=-0.02733881601256077 pbc="F F F"
Xe       0.00000000       0.00000000       0.00000000       0.00000000       0.00000000      -0.04987644
Xe       0.00000000       0.00000000       4.09292929       0.00000000       0.00000000       0.04987644
2
Properties=species:S:1:pos:R:3:forces:R:3 energy=-0.02998516756039887 pbc="F F F"
Xe       0.00000000       0.00000000       0.00000000       0.00000000       0.00000000      -0.03916629
Xe       0.00000000       0.00000000       4.15252525       0.00000000       0.00000000       0.03916629
2
Properties=species:S:1:pos:R:3:forces:R:3 energy=-0.03203367937191817 pbc="F F F"
Xe       0.00000000       0.00000000       0.00000000       0.00000000       0.00000000      -0.02979624
Xe       0.00000000       0.00000000       4.21212121       0.00000000       0.00000000       0.02979624
2
Properties=species:S:1:pos:R:3:forces:R:3 energy=-0.03356108686925615 pbc="F F F"
Xe       0.00000000       0.00000000       0.00000000       0.00000000       0.00000000      -0.02165708
Xe       0.00000000       0.00000000       4.27171717       0.00000000       0.00000000       0.02165708
2
Properties=species:S:1:pos:R:3:forces:R:3 energy=-0.03463760489809703 pbc="F F F"
Xe       0.00000000       0.00000000       0.00000000       0.00000000       0.00000000      -0.01465293
Xe       0.00000000       0.00000000       4.33131313       0.00000000       0.00000000       0.01465293
2
Properties=species:S:1:pos:R:3:forces:R:3 energy=-0.03532826355845549 pbc="F F F"
Xe       0.00000000       0.00000000       0.00000000       0.00000000       0.00000000      -0.00869076
Xe       0.00000000       0.00000000       4.39090909       0.00000000       0.00000000       0.00869076
2
Properties=species:S:1:pos:R:3:forces:R:3 energy=-0.035692392300701814 pbc="F F F"
Xe       0.00000000       0.00000000       0.00000000       0.00000000       0.00000000      -0.00367896
Xe       0.00000000       0.00000000       4.45050505       0.00000000       0.00000000       0.00367896
2
Properties=species:S:1:pos:R:3:forces:R:3 energy=-0.035783824606406764 pbc="F F F"
Xe       0.00000000       0.00000000       0.00000000       0.00000000       0.00000000       0.00047449
Xe       0.00000000       0.00000000       4.51010101       0.00000000       0.00000000      -0.00047449
2
Properties=species:S:1:pos:R:3:forces:R:3 energy=-0.03565105216101872 pbc="F F F"
Xe       0.00000000       0.00000000       0.00000000       0.00000000       0.00000000       0.00386131
Xe       0.00000000       0.00000000       4.56969697       0.00000000       0.00000000      -0.00386131
2
Properties=species:S:1:pos:R:3:forces:R:3 energy=-0.03533705341527057 pbc="F F F"
Xe       0.00000000       0.00000000       0.00000000       0.00000000       0.00000000       0.00657071
Xe       0.00000000       0.00000000       4.62929293       0.00000000       0.00000000      -0.00657071
2
Properties=species:S:1:pos:R:3:forces:R:3 energy=-0.0348795813174664 pbc="F F F"
Xe       0.00000000       0.00000000       0.00000000       0.00000000       0.00000000       0.00869025
Xe       0.00000000       0.00000000       4.68888889       0.00000000       0.00000000      -0.00869025
2
Properties=species:S:1:pos:R:3:forces:R:3 energy=-0.03431128244753166 pbc="F F F"
Xe       0.00000000       0.00000000       0.00000000       0.00000000       0.00000000       0.01030552
Xe       0.00000000       0.00000000       4.74848485       0.00000000       0.00000000      -0.01030552
2
Properties=species:S:1:pos:R:3:forces:R:3 energy=-0.033659648371490686 pbc="F F F"
Xe       0.00000000       0.00000000       0.00000000       0.00000000       0.00000000       0.01149802
Xe       0.00000000       0.00000000       4.80808081       0.00000000       0.00000000      -0.01149802
2
Properties=species:S:1:pos:R:3:forces:R:3 energy=-0.03294769378581016 pbc="F F F"
Xe       0.00000000       0.00000000       0.00000000       0.00000000       0.00000000       0.01234222
Xe       0.00000000       0.00000000       4.86767677       0.00000000       0.00000000      -0.01234222
2
Properties=species:S:1:pos:R:3:forces:R:3 energy=-0.03219432595384626 pbc="F F F"
Xe       0.00000000       0.00000000       0.00000000       0.00000000       0.00000000       0.01289606
Xe       0.00000000       0.00000000       4.92727273       0.00000000       0.00000000      -0.01289606
2
Properties=species:S:1:pos:R:3:forces:R:3 energy=-0.03141566935178772 pbc="F F F"
Xe       0.00000000       0.00000000       0.00000000       0.00000000       0.00000000       0.01319354
Xe       0.00000000       0.00000000       4.98686869       0.00000000       0.00000000      -0.01319354
2
Properties=species:S:1:pos:R:3:forces:R:3 energy=-0.030626726794155394 pbc="F F F"
Xe       0.00000000       0.00000000       0.00000000       0.00000000       0.00000000       0.01323994
Xe       0.00000000       0.00000000       5.04646465       0.00000000       0.00000000      -0.01323994
2
Properties=species:S:1:pos:R:3:forces:R:3 energy=-0.02984287151431419 pbc="F F F"
Xe       0.00000000       0.00000000       0.00000000       0.00000000       0.00000000       0.01301984
Xe       0.00000000       0.00000000       5.10606061       0.00000000       0.00000000      -0.01301984
2
Properties=species:S:1:pos:R:3:forces:R:3 energy=-0.029080464664474816 pbc="F F F"
Xe       0.00000000       0.00000000       0.00000000       0.00000000       0.00000000       0.01251847
Xe       0.00000000       0.00000000       5.16565657       0.00000000       0.00000000      -0.01251847
2
Properties=species:S:1:pos:R:3:forces:R:3 energy=-0.028356150691613218 pbc="F F F"
Xe       0.00000000       0.00000000       0.00000000       0.00000000       0.00000000       0.01174715
Xe       0.00000000       0.00000000       5.22525253       0.00000000       0.00000000      -0.01174715
2
Properties=species:S:1:pos:R:3:forces:R:3 energy=-0.02768478962436815 pbc="F F F"
Xe       0.00000000       0.00000000       0.00000000       0.00000000       0.00000000       0.01075067
Xe       0.00000000       0.00000000       5.28484848       0.00000000       0.00000000      -0.01075067
2
Properties=species:S:1:pos:R:3:forces:R:3 energy=-0.027077809083320074 pbc="F F F"
Xe       0.00000000       0.00000000       0.00000000       0.00000000       0.00000000       0.00960329
Xe       0.00000000       0.00000000       5.34444444       0.00000000       0.00000000      -0.00960329
2
Properties=species:S:1:pos:R:3:forces:R:3 energy=-0.0265397450259683 pbc="F F F"
Xe       0.00000000       0.00000000       0.00000000       0.00000000       0.00000000       0.00848725
Xe       0.00000000       0.00000000       5.40404040       0.00000000       0.00000000      -0.00848725
2
Properties=species:S:1:pos:R:3:forces:R:3 energy=-0.02605708275464318 pbc="F F F"
Xe       0.00000000       0.00000000       0.00000000       0.00000000       0.00000000       0.00782653
Xe       0.00000000       0.00000000       5.46363636       0.00000000       0.00000000      -0.00782653
2
Properties=species:S:1:pos:R:3:forces:R:3 energy=-0.02559338936901034 pbc="F F F"
Xe       0.00000000       0.00000000       0.00000000       0.00000000       0.00000000       0.00780217
Xe       0.00000000       0.00000000       5.52323232       0.00000000       0.00000000      -0.00780217
2
Properties=species:S:1:pos:R:3:forces:R:3 energy=-0.025127955144900967 pbc="F F F"
Xe       0.00000000       0.00000000       0.00000000       0.00000000       0.00000000       0.00775509
Xe       0.00000000       0.00000000       5.58282828       0.00000000       0.00000000      -0.00775509
2
Properties=species:S:1:pos:R:3:forces:R:3 energy=-0.024675822557601486 pbc="F F F"
Xe       0.00000000       0.00000000       0.00000000       0.00000000       0.00000000       0.00740317
Xe       0.00000000       0.00000000       5.64242424       0.00000000       0.00000000      -0.00740317
2
Properties=species:S:1:pos:R:3:forces:R:3 energy=-0.024239149050964783 pbc="F F F"
Xe       0.00000000       0.00000000       0.00000000       0.00000000       0.00000000       0.00737211
Xe       0.00000000       0.00000000       5.70202020       0.00000000       0.00000000      -0.00737211
2
Properties=species:S:1:pos:R:3:forces:R:3 energy=-0.02378058420604557 pbc="F F F"
Xe       0.00000000       0.00000000       0.00000000       0.00000000       0.00000000       0.00810855
Xe       0.00000000       0.00000000       5.76161616       0.00000000       0.00000000      -0.00810855
2
Properties=species:S:1:pos:R:3:forces:R:3 energy=-0.023279588562588834 pbc="F F F"
Xe       0.00000000       0.00000000       0.00000000       0.00000000       0.00000000       0.00848836
Xe       0.00000000       0.00000000       5.82121212       0.00000000       0.00000000      -0.00848836
2
Properties=species:S:1:pos:R:3:forces:R:3 energy=-0.022800471659583047 pbc="F F F"
Xe       0.00000000       0.00000000       0.00000000       0.00000000       0.00000000       0.00739554
Xe       0.00000000       0.00000000       5.88080808       0.00000000       0.00000000      -0.00739554
2
Properties=species:S:1:pos:R:3:forces:R:3 energy=-0.022408168106085223 pbc="F F F"
Xe       0.00000000       0.00000000       0.00000000       0.00000000       0.00000000       0.00578259
Xe       0.00000000       0.00000000       5.94040404       0.00000000       0.00000000      -0.00578259
2
Properties=species:S:1:pos:R:3:forces:R:3 energy=-0.02209562274055956 pbc="F F F"
Xe       0.00000000       0.00000000       0.00000000       0.00000000       0.00000000       0.00489970
Xe       0.00000000       0.00000000       6.00000000       0.00000000       0.00000000      -0.00489970
