2
Properties=species:S:1:pos:R:3:forces:R:3 energy=71643.92623601788 pbc="F F F"
Yb       0.00000000       0.00000000       0.00000000       0.00000000       0.00000000 -1790399.62500000
Yb       0.00000000       0.00000000       0.10000000       0.00000000       0.00000000 1790399.62500000
2
Properties=species:S:1:pos:R:3:forces:R:3 energy=20072.48287664288 pbc="F F F"
Yb       0.00000000       0.00000000       0.00000000       0.00000000       0.00000000 -371509.87500000
Yb       0.00000000       0.00000000       0.15959596       0.00000000       0.00000000  371509.87500000
2
Properties=species:S:1:pos:R:3:forces:R:3 energy=7445.854946955382 pbc="F F F"
Yb       0.00000000       0.00000000       0.00000000       0.00000000       0.00000000 -112132.22656250
Yb       0.00000000       0.00000000       0.21919192       0.00000000       0.00000000  112132.22656250
2
Properties=species:S:1:pos:R:3:forces:R:3 energy=3266.9967926585064 pbc="F F F"
Yb       0.00000000       0.00000000       0.00000000       0.00000000       0.00000000  -41408.04687500
Yb       0.00000000       0.00000000       0.27878788       0.00000000       0.00000000   41408.04687500
2
Properties=species:S:1:pos:R:3:forces:R:3 energy=1635.8706940320296 pbc="F F F"
Yb       0.00000000       0.00000000       0.00000000       0.00000000       0.00000000  -17253.57812500
Yb       0.00000000       0.00000000       0.33838384       0.00000000       0.00000000   17253.57812500
2
Properties=species:S:1:pos:R:3:forces:R:3 energy=929.4360016492171 pbc="F F F"
Yb       0.00000000       0.00000000       0.00000000       0.00000000       0.00000000   -7833.05371094
Yb       0.00000000       0.00000000       0.39797980       0.00000000       0.00000000    7833.05371094
2
Properties=species:S:1:pos:R:3:forces:R:3 energy=597.8247955945296 pbc="F F F"
Yb       0.00000000       0.00000000       0.00000000       0.00000000       0.00000000   -3837.77929688
Yb       0.00000000       0.00000000       0.45757576       0.00000000       0.00000000    3837.77929688
2
Properties=species:S:1:pos:R:3:forces:R:3 energy=429.40273750173213 pbc="F F F"
Yb       0.00000000       0.00000000       0.00000000       0.00000000       0.00000000   -2044.38159180
Yb       0.00000000       0.00000000       0.51717172       0.00000000       0.00000000    2044.38159180
2
Properties=species:S:1:pos:R:3:forces:R:3 energy=335.58263865012157 pbc="F F F"
Yb       0.00000000       0.00000000       0.00000000       0.00000000       0.00000000   -1207.19628906
Yb       0.00000000       0.00000000       0.57676768       0.00000000       0.00000000    1207.19628906
2
Properties=species:S:1:pos:R:3:forces:R:3 energy=277.0846833658698 pbc="F F F"
Yb       0.00000000       0.00000000       0.00000000       0.00000000       0.00000000    -802.72967529
Yb       0.00000000       0.00000000       0.63636364       0.00000000       0.00000000     802.72967529
2
Properties=species:S:1:pos:R:3:forces:R:3 energy=236.19018269680438 pbc="F F F"
Yb       0.00000000       0.00000000       0.00000000       0.00000000       0.00000000    -589.21179199
Yb       0.00000000       0.00000000       0.69595960       0.00000000       0.00000000     589.21179199
2
Properties=species:S:1:pos:R:3:forces:R:3 energy=205.3367282019953 pbc="F F F"
Yb       0.00000000       0.00000000       0.00000000       0.00000000       0.00000000    -454.31698608
Yb       0.00000000       0.00000000       0.75555556       0.00000000       0.00000000     454.31698608
2
Properties=species:S:1:pos:R:3:forces:R:3 energy=181.55035138825448 pbc="F F F"
Yb       0.00000000       0.00000000       0.00000000       0.00000000       0.00000000    -342.85137939
Yb       0.00000000       0.00000000       0.81515152       0.00000000       0.00000000     342.85137939
2
Properties=species:S:1:pos:R:3:forces:R:3 energy=164.99740359294822 pbc="F F F"
Yb       0.00000000       0.00000000       0.00000000       0.00000000       0.00000000    -211.44703674
Yb       0.00000000       0.00000000       0.87474747       0.00000000       0.00000000     211.44703674
2
Properties=species:S:1:pos:R:3:forces:R:3 energy=155.42872407481755 pbc="F F F"
Yb       0.00000000       0.00000000       0.00000000       0.00000000       0.00000000    -122.40789795
Yb       0.00000000       0.00000000       0.93434343       0.00000000       0.00000000     122.40789795
2
Properties=species:S:1:pos:R:3:forces:R:3 energy=148.7627241077522 pbc="F F F"
Yb       0.00000000       0.00000000       0.00000000       0.00000000       0.00000000    -120.53012848
Yb       0.00000000       0.00000000       0.99393939       0.00000000       0.00000000     120.53012848
2
Properties=species:S:1:pos:R:3:forces:R:3 energy=137.99151492314942 pbc="F F F"
Yb       0.00000000       0.00000000       0.00000000       0.00000000       0.00000000    -253.86439514
Yb       0.00000000       0.00000000       1.05353535       0.00000000       0.00000000     253.86439514
2
Properties=species:S:1:pos:R:3:forces:R:3 energy=117.57315780896309 pbc="F F F"
Yb       0.00000000       0.00000000       0.00000000       0.00000000       0.00000000    -369.21630859
Yb       0.00000000       0.00000000       1.11313131       0.00000000       0.00000000     369.21630859
2
Properties=species:S:1:pos:R:3:forces:R:3 energy=96.45244647903628 pbc="F F F"
Yb       0.00000000       0.00000000       0.00000000       0.00000000       0.00000000    -341.91900635
Yb       0.00000000       0.00000000       1.17272727       0.00000000       0.00000000     341.91900635
2
Properties=species:S:1:pos:R:3:forces:R:3 energy=77.11787588244367 pbc="F F F"
Yb       0.00000000       0.00000000       0.00000000       0.00000000       0.00000000    -304.78558350
Yb       0.00000000       0.00000000       1.23232323       0.00000000       0.00000000     304.78558350
2
Properties=species:S:1:pos:R:3:forces:R:3 energy=60.188735474399365 pbc="F F F"
Yb       0.00000000       0.00000000       0.00000000       0.00000000       0.00000000    -263.38967896
Yb       0.00000000       0.00000000       1.29191919       0.00000000       0.00000000     263.38967896
2
Properties=species:S:1:pos:R:3:forces:R:3 energy=45.76237640514988 pbc="F F F"
Yb       0.00000000       0.00000000       0.00000000       0.00000000       0.00000000    -219.74188232
Yb       0.00000000       0.00000000       1.35151515       0.00000000       0.00000000     219.74188232
2
Properties=species:S:1:pos:R:3:forces:R:3 energy=34.17509104291121 pbc="F F F"
Yb       0.00000000       0.00000000       0.00000000       0.00000000       0.00000000    -167.99143982
Yb       0.00000000       0.00000000       1.41111111       0.00000000       0.00000000     167.99143982
2
Properties=species:S:1:pos:R:3:forces:R:3 energy=25.664350115884726 pbc="F F F"
Yb       0.00000000       0.00000000       0.00000000       0.00000000       0.00000000    -120.10205078
Yb       0.00000000       0.00000000       1.47070707       0.00000000       0.00000000     120.10205078
2
Properties=species:S:1:pos:R:3:forces:R:3 energy=19.513057415712314 pbc="F F F"
Yb       0.00000000       0.00000000       0.00000000       0.00000000       0.00000000     -88.46671295
Yb       0.00000000       0.00000000       1.53030303       0.00000000       0.00000000      88.46671295
2
Properties=species:S:1:pos:R:3:forces:R:3 energy=15.007984843398855 pbc="F F F"
Yb       0.00000000       0.00000000       0.00000000       0.00000000       0.00000000     -63.18842316
Yb       0.00000000       0.00000000       1.58989899       0.00000000       0.00000000      63.18842316
2
Properties=species:S:1:pos:R:3:forces:R:3 energy=11.85896001210938 pbc="F F F"
Yb       0.00000000       0.00000000       0.00000000       0.00000000       0.00000000     -44.11022186
Yb       0.00000000       0.00000000       1.64949495       0.00000000       0.00000000      44.11022186
2
Properties=species:S:1:pos:R:3:forces:R:3 energy=9.555110233018004 pbc="F F F"
Yb       0.00000000       0.00000000       0.00000000       0.00000000       0.00000000     -34.51016998
Yb       0.00000000       0.00000000       1.70909091       0.00000000       0.00000000      34.51016998
2
Properties=species:S:1:pos:R:3:forces:R:3 energy=7.64879959406471 pbc="F F F"
Yb       0.00000000       0.00000000       0.00000000       0.00000000       0.00000000     -29.86093521
Yb       0.00000000       0.00000000       1.76868687       0.00000000       0.00000000      29.86093521
2
Properties=species:S:1:pos:R:3:forces:R:3 energy=5.976261462370777 pbc="F F F"
Yb       0.00000000       0.00000000       0.00000000       0.00000000       0.00000000     -26.30528831
Yb       0.00000000       0.00000000       1.82828283       0.00000000       0.00000000      26.30528831
2
Properties=species:S:1:pos:R:3:forces:R:3 energy=4.513374355382535 pbc="F F F"
Yb       0.00000000       0.00000000       0.00000000       0.00000000       0.00000000     -22.78000832
Yb       0.00000000       0.00000000       1.88787879       0.00000000       0.00000000      22.78000832
2
Properties=species:S:1:pos:R:3:forces:R:3 energy=3.261140863574874 pbc="F F F"
Yb       0.00000000       0.00000000       0.00000000       0.00000000       0.00000000     -19.25478363
Yb       0.00000000       0.00000000       1.94747475       0.00000000       0.00000000      19.25478363
2
Properties=species:S:1:pos:R:3:forces:R:3 energy=2.2154545690475627 pbc="F F F"
Yb       0.00000000       0.00000000       0.00000000       0.00000000       0.00000000     -15.87523651
Yb       0.00000000       0.00000000       2.00707071       0.00000000       0.00000000      15.87523651
2
Properties=species:S:1:pos:R:3:forces:R:3 energy=1.3629975136782 pbc="F F F"
Yb       0.00000000       0.00000000       0.00000000       0.00000000       0.00000000     -12.79422379
Yb       0.00000000       0.00000000       2.06666667       0.00000000       0.00000000      12.79422379
2
Properties=species:S:1:pos:R:3:forces:R:3 energy=0.6819406550686373 pbc="F F F"
Yb       0.00000000       0.00000000       0.00000000       0.00000000       0.00000000     -10.14181328
Yb       0.00000000       0.00000000       2.12626263       0.00000000       0.00000000      10.14181328
2
Properties=species:S:1:pos:R:3:forces:R:3 energy=0.14409552711312798 pbc="F F F"
Yb       0.00000000       0.00000000       0.00000000       0.00000000       0.00000000      -7.99394274
Yb       0.00000000       0.00000000       2.18585859       0.00000000       0.00000000       7.99394274
2
Properties=species:S:1:pos:R:3:forces:R:3 energy=-0.28082016322575926 pbc="F F F"
Yb       0.00000000       0.00000000       0.00000000       0.00000000       0.00000000      -6.34448576
Yb       0.00000000       0.00000000       2.24545455       0.00000000       0.00000000       6.34448576
2
Properties=species:S:1:pos:R:3:forces:R:3 energy=-0.620624759508442 pbc="F F F"
Yb       0.00000000       0.00000000       0.00000000       0.00000000       0.00000000      -5.12214804
Yb       0.00000000       0.00000000       2.30505051       0.00000000       0.00000000       5.12214804
2
Properties=species:S:1:pos:R:3:forces:R:3 energy=-0.8977296384686736 pbc="F F F"
Yb       0.00000000       0.00000000       0.00000000       0.00000000       0.00000000      -4.22119761
Yb       0.00000000       0.00000000       2.36464646       0.00000000       0.00000000       4.22119761
2
Properties=species:S:1:pos:R:3:forces:R:3 energy=-1.1278681498831977 pbc="F F F"
Yb       0.00000000       0.00000000       0.00000000       0.00000000       0.00000000      -3.52796149
Yb       0.00000000       0.00000000       2.42424242       0.00000000       0.00000000       3.52796149
2
Properties=species:S:1:pos:R:3:forces:R:3 energy=-1.3204953968875999 pbc="F F F"
Yb       0.00000000       0.00000000       0.00000000       0.00000000       0.00000000      -2.94999313
Yb       0.00000000       0.00000000       2.48383838       0.00000000       0.00000000       2.94999313
2
Properties=species:S:1:pos:R:3:forces:R:3 energy=-1.4806949259141742 pbc="F F F"
Yb       0.00000000       0.00000000       0.00000000       0.00000000       0.00000000      -2.43413043
Yb       0.00000000       0.00000000       2.54343434       0.00000000       0.00000000       2.43413043
2
Properties=species:S:1:pos:R:3:forces:R:3 energy=-1.611460682765613 pbc="F F F"
Yb       0.00000000       0.00000000       0.00000000       0.00000000       0.00000000      -1.96091533
Yb       0.00000000       0.00000000       2.60303030       0.00000000       0.00000000       1.96091533
2
Properties=species:S:1:pos:R:3:forces:R:3 energy=-1.7152139496565872 pbc="F F F"
Yb       0.00000000       0.00000000       0.00000000       0.00000000       0.00000000      -1.52773893
Yb       0.00000000       0.00000000       2.66262626       0.00000000       0.00000000       1.52773893
2
Properties=species:S:1:pos:R:3:forces:R:3 energy=-1.7943874010404577 pbc="F F F"
Yb       0.00000000       0.00000000       0.00000000       0.00000000       0.00000000      -1.13642240
Yb       0.00000000       0.00000000       2.72222222       0.00000000       0.00000000       1.13642240
2
Properties=species:S:1:pos:R:3:forces:R:3 energy=-1.851522681332524 pbc="F F F"
Yb       0.00000000       0.00000000       0.00000000       0.00000000       0.00000000      -0.78820360
Yb       0.00000000       0.00000000       2.78181818       0.00000000       0.00000000       0.78820360
2
Properties=species:S:1:pos:R:3:forces:R:3 energy=-1.889183801945011 pbc="F F F"
Yb       0.00000000       0.00000000       0.00000000       0.00000000       0.00000000      -0.48267040
Yb       0.00000000       0.00000000       2.84141414       0.00000000       0.00000000       0.48267040
2
Properties=species:S:1:pos:R:3:forces:R:3 energy=-1.9098634911347319 pbc="F F F"
Yb       0.00000000       0.00000000       0.00000000       0.00000000       0.00000000      -0.21786425
Yb       0.00000000       0.00000000       2.90101010       0.00000000       0.00000000       0.21786425
2
Properties=species:S:1:pos:R:3:forces:R:3 energy=-1.9158963054381992 pbc="F F F"
Yb       0.00000000       0.00000000       0.00000000       0.00000000       0.00000000       0.00948303
Yb       0.00000000       0.00000000       2.96060606       0.00000000       0.00000000      -0.00948303
2
Properties=species:S:1:pos:R:3:forces:R:3 energy=-1.9093961628359482 pbc="F F F"
Yb       0.00000000       0.00000000       0.00000000       0.00000000       0.00000000       0.20346989
Yb       0.00000000       0.00000000       3.02020202       0.00000000       0.00000000      -0.20346989
2
Properties=species:S:1:pos:R:3:forces:R:3 energy=-1.8922210061176743 pbc="F F F"
Yb       0.00000000       0.00000000       0.00000000       0.00000000       0.00000000       0.36842680
Yb       0.00000000       0.00000000       3.07979798       0.00000000       0.00000000      -0.36842680
2
Properties=species:S:1:pos:R:3:forces:R:3 energy=-1.865982271101263 pbc="F F F"
Yb       0.00000000       0.00000000       0.00000000       0.00000000       0.00000000       0.50820047
Yb       0.00000000       0.00000000       3.13939394       0.00000000       0.00000000      -0.50820047
2
Properties=species:S:1:pos:R:3:forces:R:3 energy=-1.832087514041247 pbc="F F F"
Yb       0.00000000       0.00000000       0.00000000       0.00000000       0.00000000       0.62570697
Yb       0.00000000       0.00000000       3.19898990       0.00000000       0.00000000      -0.62570697
2
Properties=species:S:1:pos:R:3:forces:R:3 energy=-1.7918060504298852 pbc="F F F"
Yb       0.00000000       0.00000000       0.00000000       0.00000000       0.00000000       0.72287732
Yb       0.00000000       0.00000000       3.25858586       0.00000000       0.00000000      -0.72287732
2
Properties=species:S:1:pos:R:3:forces:R:3 energy=-1.7463066136293255 pbc="F F F"
Yb       0.00000000       0.00000000       0.00000000       0.00000000       0.00000000       0.80100429
Yb       0.00000000       0.00000000       3.31818182       0.00000000       0.00000000      -0.80100429
2
Properties=species:S:1:pos:R:3:forces:R:3 energy=-1.6966892586116937 pbc="F F F"
Yb       0.00000000       0.00000000       0.00000000       0.00000000       0.00000000       0.86125118
Yb       0.00000000       0.00000000       3.37777778       0.00000000       0.00000000      -0.86125118
2
Properties=species:S:1:pos:R:3:forces:R:3 energy=-1.6439778517738524 pbc="F F F"
Yb       0.00000000       0.00000000       0.00000000       0.00000000       0.00000000       0.90510166
Yb       0.00000000       0.00000000       3.43737374       0.00000000       0.00000000      -0.90510166
2
Properties=species:S:1:pos:R:3:forces:R:3 energy=-1.589093882907565 pbc="F F F"
Yb       0.00000000       0.00000000       0.00000000       0.00000000       0.00000000       0.93454492
Yb       0.00000000       0.00000000       3.49696970       0.00000000       0.00000000      -0.93454492
2
Properties=species:S:1:pos:R:3:forces:R:3 energy=-1.5328261923755935 pbc="F F F"
Yb       0.00000000       0.00000000       0.00000000       0.00000000       0.00000000       0.95198983
Yb       0.00000000       0.00000000       3.55656566       0.00000000       0.00000000      -0.95198983
2
Properties=species:S:1:pos:R:3:forces:R:3 energy=-1.4758123059383954 pbc="F F F"
Yb       0.00000000       0.00000000       0.00000000       0.00000000       0.00000000       0.95999801
Yb       0.00000000       0.00000000       3.61616162       0.00000000       0.00000000      -0.95999801
2
Properties=species:S:1:pos:R:3:forces:R:3 energy=-1.4185427389598344 pbc="F F F"
Yb       0.00000000       0.00000000       0.00000000       0.00000000       0.00000000       0.96092600
Yb       0.00000000       0.00000000       3.67575758       0.00000000       0.00000000      -0.96092600
2
Properties=species:S:1:pos:R:3:forces:R:3 energy=-1.3613797629507947 pbc="F F F"
Yb       0.00000000       0.00000000       0.00000000       0.00000000       0.00000000       0.95669478
Yb       0.00000000       0.00000000       3.73535354       0.00000000       0.00000000      -0.95669478
2
Properties=species:S:1:pos:R:3:forces:R:3 energy=-1.30458698731197 pbc="F F F"
Yb       0.00000000       0.00000000       0.00000000       0.00000000       0.00000000       0.94867271
Yb       0.00000000       0.00000000       3.79494949       0.00000000       0.00000000      -0.94867271
2
Properties=species:S:1:pos:R:3:forces:R:3 energy=-1.24836275177418 pbc="F F F"
Yb       0.00000000       0.00000000       0.00000000       0.00000000       0.00000000       0.93773085
Yb       0.00000000       0.00000000       3.85454545       0.00000000       0.00000000      -0.93773085
2
Properties=species:S:1:pos:R:3:forces:R:3 energy=-1.1928655294803787 pbc="F F F"
Yb       0.00000000       0.00000000       0.00000000       0.00000000       0.00000000       0.92436975
Yb       0.00000000       0.00000000       3.91414141       0.00000000       0.00000000      -0.92436975
2
Properties=species:S:1:pos:R:3:forces:R:3 energy=-1.1382287596227156 pbc="F F F"
Yb       0.00000000       0.00000000       0.00000000       0.00000000       0.00000000       0.90884399
Yb       0.00000000       0.00000000       3.97373737       0.00000000       0.00000000      -0.90884399
2
Properties=species:S:1:pos:R:3:forces:R:3 energy=-1.0845790876317873 pbc="F F F"
Yb       0.00000000       0.00000000       0.00000000       0.00000000       0.00000000       0.89127576
Yb       0.00000000       0.00000000       4.03333333       0.00000000       0.00000000      -0.89127576
2
Properties=species:S:1:pos:R:3:forces:R:3 energy=-1.0320354926977453 pbc="F F F"
Yb       0.00000000       0.00000000       0.00000000       0.00000000       0.00000000       0.87169874
Yb       0.00000000       0.00000000       4.09292929       0.00000000       0.00000000      -0.87169874
2
Properties=species:S:1:pos:R:3:forces:R:3 energy=-0.9807191326241269 pbc="F F F"
Yb       0.00000000       0.00000000       0.00000000       0.00000000       0.00000000       0.85010636
Yb       0.00000000       0.00000000       4.15252525       0.00000000       0.00000000      -0.85010636
2
Properties=species:S:1:pos:R:3:forces:R:3 energy=-0.9307507529017063 pbc="F F F"
Yb       0.00000000       0.00000000       0.00000000       0.00000000       0.00000000       0.82648981
Yb       0.00000000       0.00000000       4.21212121       0.00000000       0.00000000      -0.82648981
2
Properties=species:S:1:pos:R:3:forces:R:3 energy=-0.8822474807289649 pbc="F F F"
Yb       0.00000000       0.00000000       0.00000000       0.00000000       0.00000000       0.80088651
Yb       0.00000000       0.00000000       4.27171717       0.00000000       0.00000000      -0.80088651
2
Properties=species:S:1:pos:R:3:forces:R:3 energy=-0.8353279775220717 pbc="F F F"
Yb       0.00000000       0.00000000       0.00000000       0.00000000       0.00000000       0.77342296
Yb       0.00000000       0.00000000       4.33131313       0.00000000       0.00000000      -0.77342296
2
Properties=species:S:1:pos:R:3:forces:R:3 energy=-0.7900948264502993 pbc="F F F"
Yb       0.00000000       0.00000000       0.00000000       0.00000000       0.00000000       0.74433190
Yb       0.00000000       0.00000000       4.39090909       0.00000000       0.00000000      -0.74433190
2
Properties=species:S:1:pos:R:3:forces:R:3 energy=-0.7466344270659745 pbc="F F F"
Yb       0.00000000       0.00000000       0.00000000       0.00000000       0.00000000       0.71397680
Yb       0.00000000       0.00000000       4.45050505       0.00000000       0.00000000      -0.71397680
2
Properties=species:S:1:pos:R:3:forces:R:3 energy=-0.7050106872995751 pbc="F F F"
Yb       0.00000000       0.00000000       0.00000000       0.00000000       0.00000000       0.68282253
Yb       0.00000000       0.00000000       4.51010101       0.00000000       0.00000000      -0.68282253
2
Properties=species:S:1:pos:R:3:forces:R:3 energy=-0.6652532991836896 pbc="F F F"
Yb       0.00000000       0.00000000       0.00000000       0.00000000       0.00000000       0.65136087
Yb       0.00000000       0.00000000       4.56969697       0.00000000       0.00000000      -0.65136087
2
Properties=species:S:1:pos:R:3:forces:R:3 energy=-0.6273703773736139 pbc="F F F"
Yb       0.00000000       0.00000000       0.00000000       0.00000000       0.00000000       0.62002391
Yb       0.00000000       0.00000000       4.62929293       0.00000000       0.00000000      -0.62002391
2
Properties=species:S:1:pos:R:3:forces:R:3 energy=-0.5913433003017272 pbc="F F F"
Yb       0.00000000       0.00000000       0.00000000       0.00000000       0.00000000       0.58912975
Yb       0.00000000       0.00000000       4.68888889       0.00000000       0.00000000      -0.58912975
2
Properties=species:S:1:pos:R:3:forces:R:3 energy=-0.5571394343532571 pbc="F F F"
Yb       0.00000000       0.00000000       0.00000000       0.00000000       0.00000000       0.55879766
Yb       0.00000000       0.00000000       4.74848485       0.00000000       0.00000000      -0.55879766
2
Properties=species:S:1:pos:R:3:forces:R:3 energy=-0.5247276407013589 pbc="F F F"
Yb       0.00000000       0.00000000       0.00000000       0.00000000       0.00000000       0.52904195
Yb       0.00000000       0.00000000       4.80808081       0.00000000       0.00000000      -0.52904195
2
Properties=species:S:1:pos:R:3:forces:R:3 energy=-0.49407076816572515 pbc="F F F"
Yb       0.00000000       0.00000000       0.00000000       0.00000000       0.00000000       0.49984998
Yb       0.00000000       0.00000000       4.86767677       0.00000000       0.00000000      -0.49984998
2
Properties=species:S:1:pos:R:3:forces:R:3 energy=-0.46513370875912063 pbc="F F F"
Yb       0.00000000       0.00000000       0.00000000       0.00000000       0.00000000       0.47140592
Yb       0.00000000       0.00000000       4.92727273       0.00000000       0.00000000      -0.47140592
2
Properties=species:S:1:pos:R:3:forces:R:3 energy=-0.4378580854282326 pbc="F F F"
Yb       0.00000000       0.00000000       0.00000000       0.00000000       0.00000000       0.44421077
Yb       0.00000000       0.00000000       4.98686869       0.00000000       0.00000000      -0.44421077
2
Properties=species:S:1:pos:R:3:forces:R:3 energy=-0.4121486126774599 pbc="F F F"
Yb       0.00000000       0.00000000       0.00000000       0.00000000       0.00000000       0.41909701
Yb       0.00000000       0.00000000       5.04646465       0.00000000       0.00000000      -0.41909701
2
Properties=species:S:1:pos:R:3:forces:R:3 energy=-0.3878481914548341 pbc="F F F"
Yb       0.00000000       0.00000000       0.00000000       0.00000000       0.00000000       0.39693421
Yb       0.00000000       0.00000000       5.10606061       0.00000000       0.00000000      -0.39693421
2
Properties=species:S:1:pos:R:3:forces:R:3 energy=-0.36476768988362845 pbc="F F F"
Yb       0.00000000       0.00000000       0.00000000       0.00000000       0.00000000       0.37803394
Yb       0.00000000       0.00000000       5.16565657       0.00000000       0.00000000      -0.37803394
2
Properties=species:S:1:pos:R:3:forces:R:3 energy=-0.3427425069022973 pbc="F F F"
Yb       0.00000000       0.00000000       0.00000000       0.00000000       0.00000000       0.36132127
Yb       0.00000000       0.00000000       5.22525253       0.00000000       0.00000000      -0.36132127
2
Properties=species:S:1:pos:R:3:forces:R:3 energy=-0.3217220712224528 pbc="F F F"
Yb       0.00000000       0.00000000       0.00000000       0.00000000       0.00000000       0.34360164
Yb       0.00000000       0.00000000       5.28484848       0.00000000       0.00000000      -0.34360164
2
Properties=species:S:1:pos:R:3:forces:R:3 energy=-0.30189113302918424 pbc="F F F"
Yb       0.00000000       0.00000000       0.00000000       0.00000000       0.00000000       0.32085109
Yb       0.00000000       0.00000000       5.34444444       0.00000000       0.00000000      -0.32085109
2
Properties=species:S:1:pos:R:3:forces:R:3 energy=-0.2835594130248484 pbc="F F F"
Yb       0.00000000       0.00000000       0.00000000       0.00000000       0.00000000       0.29448694
Yb       0.00000000       0.00000000       5.40404040       0.00000000       0.00000000      -0.29448694
2
Properties=species:S:1:pos:R:3:forces:R:3 energy=-0.2666239055307252 pbc="F F F"
Yb       0.00000000       0.00000000       0.00000000       0.00000000       0.00000000       0.27599490
Yb       0.00000000       0.00000000       5.46363636       0.00000000       0.00000000      -0.27599490
2
Properties=species:S:1:pos:R:3:forces:R:3 energy=-0.2504826439452641 pbc="F F F"
Yb       0.00000000       0.00000000       0.00000000       0.00000000       0.00000000       0.26568881
Yb       0.00000000       0.00000000       5.52323232       0.00000000       0.00000000      -0.26568881
2
Properties=species:S:1:pos:R:3:forces:R:3 energy=-0.23523082997837583 pbc="F F F"
Yb       0.00000000       0.00000000       0.00000000       0.00000000       0.00000000       0.24286880
Yb       0.00000000       0.00000000       5.58282828       0.00000000       0.00000000      -0.24286880
2
Properties=species:S:1:pos:R:3:forces:R:3 energy=-0.22180354384205375 pbc="F F F"
Yb       0.00000000       0.00000000       0.00000000       0.00000000       0.00000000       0.20737079
Yb       0.00000000       0.00000000       5.64242424       0.00000000       0.00000000      -0.20737079
2
Properties=species:S:1:pos:R:3:forces:R:3 energy=-0.21026466127152046 pbc="F F F"
Yb       0.00000000       0.00000000       0.00000000       0.00000000       0.00000000       0.18409817
Yb       0.00000000       0.00000000       5.70202020       0.00000000       0.00000000      -0.18409817
2
Properties=species:S:1:pos:R:3:forces:R:3 energy=-0.1992585397265205 pbc="F F F"
Yb       0.00000000       0.00000000       0.00000000       0.00000000       0.00000000       0.18880011
Yb       0.00000000       0.00000000       5.76161616       0.00000000       0.00000000      -0.18880011
2
Properties=species:S:1:pos:R:3:forces:R:3 energy=-0.18800905270100657 pbc="F F F"
Yb       0.00000000       0.00000000       0.00000000       0.00000000       0.00000000       0.18112765
Yb       0.00000000       0.00000000       5.82121212       0.00000000       0.00000000      -0.18112765
2
Properties=species:S:1:pos:R:3:forces:R:3 energy=-0.17872527084616652 pbc="F F F"
Yb       0.00000000       0.00000000       0.00000000       0.00000000       0.00000000       0.12478751
Yb       0.00000000       0.00000000       5.88080808       0.00000000       0.00000000      -0.12478751
2
Properties=species:S:1:pos:R:3:forces:R:3 energy=-0.1733215250304056 pbc="F F F"
Yb       0.00000000       0.00000000       0.00000000       0.00000000       0.00000000       0.05827779
Yb       0.00000000       0.00000000       5.94040404       0.00000000       0.00000000      -0.05827779
2
Properties=species:S:1:pos:R:3:forces:R:3 energy=-0.1709597390467147 pbc="F F F"
Yb       0.00000000       0.00000000       0.00000000       0.00000000       0.00000000       0.03022114
Yb       0.00000000       0.00000000       6.00000000       0.00000000       0.00000000      -0.03022114
