2
Properties=species:S:1:pos:R:3:forces:R:3 energy=5464.148101891455 pbc="F F F"
Zn       0.00000000       0.00000000       0.00000000       0.00000000       0.00000000  -65919.46875000
Zn       0.00000000       0.00000000       0.18000000       0.00000000       0.00000000   65919.46875000
2
Properties=species:S:1:pos:R:3:forces:R:3 energy=3071.4950257195796 pbc="F F F"
Zn       0.00000000       0.00000000       0.00000000       0.00000000       0.00000000  -23911.65820312
Zn       0.00000000       0.00000000       0.23878788       0.00000000       0.00000000   23911.65820312
2
Properties=species:S:1:pos:R:3:forces:R:3 energy=2128.9137268946224 pbc="F F F"
Zn       0.00000000       0.00000000       0.00000000       0.00000000       0.00000000  -10435.51953125
Zn       0.00000000       0.00000000       0.29757576       0.00000000       0.00000000   10435.51953125
2
Properties=species:S:1:pos:R:3:forces:R:3 energy=1686.2944642024777 pbc="F F F"
Zn       0.00000000       0.00000000       0.00000000       0.00000000       0.00000000   -5402.89648438
Zn       0.00000000       0.00000000       0.35636364       0.00000000       0.00000000    5402.89648438
2
Properties=species:S:1:pos:R:3:forces:R:3 energy=1434.8139954588132 pbc="F F F"
Zn       0.00000000       0.00000000       0.00000000       0.00000000       0.00000000   -3469.91772461
Zn       0.00000000       0.00000000       0.41515152       0.00000000       0.00000000    3469.91772461
2
Properties=species:S:1:pos:R:3:forces:R:3 energy=1252.9691468481756 pbc="F F F"
Zn       0.00000000       0.00000000       0.00000000       0.00000000       0.00000000   -2860.26928711
Zn       0.00000000       0.00000000       0.47393939       0.00000000       0.00000000    2860.26928711
2
Properties=species:S:1:pos:R:3:forces:R:3 energy=1086.9772035204787 pbc="F F F"
Zn       0.00000000       0.00000000       0.00000000       0.00000000       0.00000000   -2849.43774414
Zn       0.00000000       0.00000000       0.53272727       0.00000000       0.00000000    2849.43774414
2
Properties=species:S:1:pos:R:3:forces:R:3 energy=913.7982484930388 pbc="F F F"
Zn       0.00000000       0.00000000       0.00000000       0.00000000       0.00000000   -3052.05273438
Zn       0.00000000       0.00000000       0.59151515       0.00000000       0.00000000    3052.05273438
2
Properties=species:S:1:pos:R:3:forces:R:3 energy=730.2735293497923 pbc="F F F"
Zn       0.00000000       0.00000000       0.00000000       0.00000000       0.00000000   -3138.27514648
Zn       0.00000000       0.00000000       0.65030303       0.00000000       0.00000000    3138.27514648
2
Properties=species:S:1:pos:R:3:forces:R:3 energy=555.0138859408246 pbc="F F F"
Zn       0.00000000       0.00000000       0.00000000       0.00000000       0.00000000   -2772.91674805
Zn       0.00000000       0.00000000       0.70909091       0.00000000       0.00000000    2772.91674805
2
Properties=species:S:1:pos:R:3:forces:R:3 energy=407.33410710983776 pbc="F F F"
Zn       0.00000000       0.00000000       0.00000000       0.00000000       0.00000000   -2247.31884766
Zn       0.00000000       0.00000000       0.76787879       0.00000000       0.00000000    2247.31884766
2
Properties=species:S:1:pos:R:3:forces:R:3 energy=290.90841774519345 pbc="F F F"
Zn       0.00000000       0.00000000       0.00000000       0.00000000       0.00000000   -1718.26928711
Zn       0.00000000       0.00000000       0.82666667       0.00000000       0.00000000    1718.26928711
2
Properties=species:S:1:pos:R:3:forces:R:3 energy=204.60540918399585 pbc="F F F"
Zn       0.00000000       0.00000000       0.00000000       0.00000000       0.00000000   -1229.75854492
Zn       0.00000000       0.00000000       0.88545455       0.00000000       0.00000000    1229.75854492
2
Properties=species:S:1:pos:R:3:forces:R:3 energy=144.23341582434816 pbc="F F F"
Zn       0.00000000       0.00000000       0.00000000       0.00000000       0.00000000    -843.37866211
Zn       0.00000000       0.00000000       0.94424242       0.00000000       0.00000000     843.37866211
2
Properties=species:S:1:pos:R:3:forces:R:3 energy=103.27045744713017 pbc="F F F"
Zn       0.00000000       0.00000000       0.00000000       0.00000000       0.00000000    -567.80090332
Zn       0.00000000       0.00000000       1.00303030       0.00000000       0.00000000     567.80090332
2
Properties=species:S:1:pos:R:3:forces:R:3 energy=75.55617186887812 pbc="F F F"
Zn       0.00000000       0.00000000       0.00000000       0.00000000       0.00000000    -390.32907104
Zn       0.00000000       0.00000000       1.06181818       0.00000000       0.00000000     390.32907104
2
Properties=species:S:1:pos:R:3:forces:R:3 energy=55.84823816388675 pbc="F F F"
Zn       0.00000000       0.00000000       0.00000000       0.00000000       0.00000000    -287.28588867
Zn       0.00000000       0.00000000       1.12060606       0.00000000       0.00000000     287.28588867
2
Properties=species:S:1:pos:R:3:forces:R:3 energy=41.75829354900488 pbc="F F F"
Zn       0.00000000       0.00000000       0.00000000       0.00000000       0.00000000    -192.04493713
Zn       0.00000000       0.00000000       1.17939394       0.00000000       0.00000000     192.04493713
2
Properties=species:S:1:pos:R:3:forces:R:3 energy=32.538325608220795 pbc="F F F"
Zn       0.00000000       0.00000000       0.00000000       0.00000000       0.00000000    -130.33409119
Zn       0.00000000       0.00000000       1.23818182       0.00000000       0.00000000     130.33409119
2
Properties=species:S:1:pos:R:3:forces:R:3 energy=25.746354112644543 pbc="F F F"
Zn       0.00000000       0.00000000       0.00000000       0.00000000       0.00000000    -103.50309753
Zn       0.00000000       0.00000000       1.29696970       0.00000000       0.00000000     103.50309753
2
Properties=species:S:1:pos:R:3:forces:R:3 energy=20.232846918391104 pbc="F F F"
Zn       0.00000000       0.00000000       0.00000000       0.00000000       0.00000000     -84.47542572
Zn       0.00000000       0.00000000       1.35575758       0.00000000       0.00000000      84.47542572
2
Properties=species:S:1:pos:R:3:forces:R:3 energy=15.777149724752128 pbc="F F F"
Zn       0.00000000       0.00000000       0.00000000       0.00000000       0.00000000     -67.47320557
Zn       0.00000000       0.00000000       1.41454545       0.00000000       0.00000000      67.47320557
2
Properties=species:S:1:pos:R:3:forces:R:3 energy=12.24937325575148 pbc="F F F"
Zn       0.00000000       0.00000000       0.00000000       0.00000000       0.00000000     -53.00537491
Zn       0.00000000       0.00000000       1.47333333       0.00000000       0.00000000      53.00537491
2
Properties=species:S:1:pos:R:3:forces:R:3 energy=9.490307540729875 pbc="F F F"
Zn       0.00000000       0.00000000       0.00000000       0.00000000       0.00000000     -41.31671906
Zn       0.00000000       0.00000000       1.53212121       0.00000000       0.00000000      41.31671906
2
Properties=species:S:1:pos:R:3:forces:R:3 energy=7.341112660005371 pbc="F F F"
Zn       0.00000000       0.00000000       0.00000000       0.00000000       0.00000000     -32.18797684
Zn       0.00000000       0.00000000       1.59090909       0.00000000       0.00000000      32.18797684
2
Properties=species:S:1:pos:R:3:forces:R:3 energy=5.665844888686798 pbc="F F F"
Zn       0.00000000       0.00000000       0.00000000       0.00000000       0.00000000     -25.10181618
Zn       0.00000000       0.00000000       1.64969697       0.00000000       0.00000000      25.10181618
2
Properties=species:S:1:pos:R:3:forces:R:3 energy=4.359007921589289 pbc="F F F"
Zn       0.00000000       0.00000000       0.00000000       0.00000000       0.00000000     -19.58857536
Zn       0.00000000       0.00000000       1.70848485       0.00000000       0.00000000      19.58857536
2
Properties=species:S:1:pos:R:3:forces:R:3 energy=3.338677718709806 pbc="F F F"
Zn       0.00000000       0.00000000       0.00000000       0.00000000       0.00000000     -15.30272388
Zn       0.00000000       0.00000000       1.76727273       0.00000000       0.00000000      15.30272388
2
Properties=species:S:1:pos:R:3:forces:R:3 energy=2.5413601412576083 pbc="F F F"
Zn       0.00000000       0.00000000       0.00000000       0.00000000       0.00000000     -11.95904446
Zn       0.00000000       0.00000000       1.82606061       0.00000000       0.00000000      11.95904446
2
Properties=species:S:1:pos:R:3:forces:R:3 energy=1.9184888953335486 pbc="F F F"
Zn       0.00000000       0.00000000       0.00000000       0.00000000       0.00000000      -9.33683872
Zn       0.00000000       0.00000000       1.88484848       0.00000000       0.00000000       9.33683872
2
Properties=species:S:1:pos:R:3:forces:R:3 energy=1.4325840982653415 pbc="F F F"
Zn       0.00000000       0.00000000       0.00000000       0.00000000       0.00000000      -7.27676487
Zn       0.00000000       0.00000000       1.94363636       0.00000000       0.00000000       7.27676487
2
Properties=species:S:1:pos:R:3:forces:R:3 energy=1.054208096992355 pbc="F F F"
Zn       0.00000000       0.00000000       0.00000000       0.00000000       0.00000000      -5.66185188
Zn       0.00000000       0.00000000       2.00242424       0.00000000       0.00000000       5.66185188
2
Properties=species:S:1:pos:R:3:forces:R:3 energy=0.7599632688357161 pbc="F F F"
Zn       0.00000000       0.00000000       0.00000000       0.00000000       0.00000000      -4.40096617
Zn       0.00000000       0.00000000       2.06121212       0.00000000       0.00000000       4.40096617
2
Properties=species:S:1:pos:R:3:forces:R:3 energy=0.5312811408598672 pbc="F F F"
Zn       0.00000000       0.00000000       0.00000000       0.00000000       0.00000000      -3.42022204
Zn       0.00000000       0.00000000       2.12000000       0.00000000       0.00000000       3.42022204
2
Properties=species:S:1:pos:R:3:forces:R:3 energy=0.35351679608487785 pbc="F F F"
Zn       0.00000000       0.00000000       0.00000000       0.00000000       0.00000000      -2.65988207
Zn       0.00000000       0.00000000       2.17878788       0.00000000       0.00000000       2.65988207
2
Properties=species:S:1:pos:R:3:forces:R:3 energy=0.21515277845859426 pbc="F F F"
Zn       0.00000000       0.00000000       0.00000000       0.00000000       0.00000000      -2.07290554
Zn       0.00000000       0.00000000       2.23757576       0.00000000       0.00000000       2.07290554
2
Properties=species:S:1:pos:R:3:forces:R:3 energy=0.10711347176563235 pbc="F F F"
Zn       0.00000000       0.00000000       0.00000000       0.00000000       0.00000000      -1.62295854
Zn       0.00000000       0.00000000       2.29636364       0.00000000       0.00000000       1.62295854
2
Properties=species:S:1:pos:R:3:forces:R:3 energy=0.022204619727786035 pbc="F F F"
Zn       0.00000000       0.00000000       0.00000000       0.00000000       0.00000000      -1.28180814
Zn       0.00000000       0.00000000       2.35515152       0.00000000       0.00000000       1.28180814
2
Properties=species:S:1:pos:R:3:forces:R:3 energy=-0.0452800534287643 pbc="F F F"
Zn       0.00000000       0.00000000       0.00000000       0.00000000       0.00000000      -1.02666962
Zn       0.00000000       0.00000000       2.41393939       0.00000000       0.00000000       1.02666962
2
Properties=species:S:1:pos:R:3:forces:R:3 energy=-0.09979829039294189 pbc="F F F"
Zn       0.00000000       0.00000000       0.00000000       0.00000000       0.00000000      -0.83738250
Zn       0.00000000       0.00000000       2.47272727       0.00000000       0.00000000       0.83738250
2
Properties=species:S:1:pos:R:3:forces:R:3 energy=-0.1446163757983701 pbc="F F F"
Zn       0.00000000       0.00000000       0.00000000       0.00000000       0.00000000      -0.69290966
Zn       0.00000000       0.00000000       2.53151515       0.00000000       0.00000000       0.69290966
2
Properties=species:S:1:pos:R:3:forces:R:3 energy=-0.18169363617814105 pbc="F F F"
Zn       0.00000000       0.00000000       0.00000000       0.00000000       0.00000000      -0.57043725
Zn       0.00000000       0.00000000       2.59030303       0.00000000       0.00000000       0.57043725
2
Properties=species:S:1:pos:R:3:forces:R:3 energy=-0.21181735844124938 pbc="F F F"
Zn       0.00000000       0.00000000       0.00000000       0.00000000       0.00000000      -0.45546120
Zn       0.00000000       0.00000000       2.64909091       0.00000000       0.00000000       0.45546120
2
Properties=species:S:1:pos:R:3:forces:R:3 energy=-0.23547349849252155 pbc="F F F"
Zn       0.00000000       0.00000000       0.00000000       0.00000000       0.00000000      -0.35225627
Zn       0.00000000       0.00000000       2.70787879       0.00000000       0.00000000       0.35225627
2
Properties=species:S:1:pos:R:3:forces:R:3 energy=-0.25364155930246196 pbc="F F F"
Zn       0.00000000       0.00000000       0.00000000       0.00000000       0.00000000      -0.26939365
Zn       0.00000000       0.00000000       2.76666667       0.00000000       0.00000000       0.26939365
2
Properties=species:S:1:pos:R:3:forces:R:3 energy=-0.267525631129449 pbc="F F F"
Zn       0.00000000       0.00000000       0.00000000       0.00000000       0.00000000      -0.20570853
Zn       0.00000000       0.00000000       2.82545455       0.00000000       0.00000000       0.20570853
2
Properties=species:S:1:pos:R:3:forces:R:3 energy=-0.2780975882227497 pbc="F F F"
Zn       0.00000000       0.00000000       0.00000000       0.00000000       0.00000000      -0.15588383
Zn       0.00000000       0.00000000       2.88424242       0.00000000       0.00000000       0.15588383
2
Properties=species:S:1:pos:R:3:forces:R:3 energy=-0.2860522222915078 pbc="F F F"
Zn       0.00000000       0.00000000       0.00000000       0.00000000       0.00000000      -0.11623843
Zn       0.00000000       0.00000000       2.94303030       0.00000000       0.00000000       0.11623843
2
Properties=species:S:1:pos:R:3:forces:R:3 energy=-0.29192539794471856 pbc="F F F"
Zn       0.00000000       0.00000000       0.00000000       0.00000000       0.00000000      -0.08482700
Zn       0.00000000       0.00000000       3.00181818       0.00000000       0.00000000       0.08482700
2
Properties=species:S:1:pos:R:3:forces:R:3 energy=-0.2961610440388756 pbc="F F F"
Zn       0.00000000       0.00000000       0.00000000       0.00000000       0.00000000      -0.06032138
Zn       0.00000000       0.00000000       3.06060606       0.00000000       0.00000000       0.06032138
2
Properties=species:S:1:pos:R:3:forces:R:3 energy=-0.2991287154054703 pbc="F F F"
Zn       0.00000000       0.00000000       0.00000000       0.00000000       0.00000000      -0.04148503
Zn       0.00000000       0.00000000       3.11939394       0.00000000       0.00000000       0.04148503
2
Properties=species:S:1:pos:R:3:forces:R:3 energy=-0.30112549619506923 pbc="F F F"
Zn       0.00000000       0.00000000       0.00000000       0.00000000       0.00000000      -0.02709344
Zn       0.00000000       0.00000000       3.17818182       0.00000000       0.00000000       0.02709344
2
Properties=species:S:1:pos:R:3:forces:R:3 energy=-0.30237907657644564 pbc="F F F"
Zn       0.00000000       0.00000000       0.00000000       0.00000000       0.00000000      -0.01601882
Zn       0.00000000       0.00000000       3.23696970       0.00000000       0.00000000       0.01601882
2
Properties=species:S:1:pos:R:3:forces:R:3 energy=-0.30305562099175554 pbc="F F F"
Zn       0.00000000       0.00000000       0.00000000       0.00000000       0.00000000      -0.00732988
Zn       0.00000000       0.00000000       3.29575758       0.00000000       0.00000000       0.00732988
2
Properties=species:S:1:pos:R:3:forces:R:3 energy=-0.30327438536375073 pbc="F F F"
Zn       0.00000000       0.00000000       0.00000000       0.00000000       0.00000000      -0.00035494
Zn       0.00000000       0.00000000       3.35454545       0.00000000       0.00000000       0.00035494
2
Properties=species:S:1:pos:R:3:forces:R:3 energy=-0.30312293141136015 pbc="F F F"
Zn       0.00000000       0.00000000       0.00000000       0.00000000       0.00000000       0.00530585
Zn       0.00000000       0.00000000       3.41333333       0.00000000       0.00000000      -0.00530585
2
Properties=species:S:1:pos:R:3:forces:R:3 energy=-0.30267279750357395 pbc="F F F"
Zn       0.00000000       0.00000000       0.00000000       0.00000000       0.00000000       0.00981886
Zn       0.00000000       0.00000000       3.47212121       0.00000000       0.00000000      -0.00981886
2
Properties=species:S:1:pos:R:3:forces:R:3 energy=-0.30199095729842773 pbc="F F F"
Zn       0.00000000       0.00000000       0.00000000       0.00000000       0.00000000       0.01319216
Zn       0.00000000       0.00000000       3.53090909       0.00000000       0.00000000      -0.01319216
2
Properties=species:S:1:pos:R:3:forces:R:3 energy=-0.3011455937659784 pbc="F F F"
Zn       0.00000000       0.00000000       0.00000000       0.00000000       0.00000000       0.01536268
Zn       0.00000000       0.00000000       3.58969697       0.00000000       0.00000000      -0.01536268
2
Properties=species:S:1:pos:R:3:forces:R:3 energy=-0.3002090900919617 pbc="F F F"
Zn       0.00000000       0.00000000       0.00000000       0.00000000       0.00000000       0.01627874
Zn       0.00000000       0.00000000       3.64848485       0.00000000       0.00000000      -0.01627874
2
Properties=species:S:1:pos:R:3:forces:R:3 energy=-0.2992557374828142 pbc="F F F"
Zn       0.00000000       0.00000000       0.00000000       0.00000000       0.00000000       0.01595866
Zn       0.00000000       0.00000000       3.70727273       0.00000000       0.00000000      -0.01595866
2
Properties=species:S:1:pos:R:3:forces:R:3 energy=-0.2983549642868232 pbc="F F F"
Zn       0.00000000       0.00000000       0.00000000       0.00000000       0.00000000       0.01451482
Zn       0.00000000       0.00000000       3.76606061       0.00000000       0.00000000      -0.01451482
2
Properties=species:S:1:pos:R:3:forces:R:3 energy=-0.29756727149891643 pbc="F F F"
Zn       0.00000000       0.00000000       0.00000000       0.00000000       0.00000000       0.01214706
Zn       0.00000000       0.00000000       3.82484848       0.00000000       0.00000000      -0.01214706
2
Properties=species:S:1:pos:R:3:forces:R:3 energy=-0.29693981509732825 pbc="F F F"
Zn       0.00000000       0.00000000       0.00000000       0.00000000       0.00000000       0.00911232
Zn       0.00000000       0.00000000       3.88363636       0.00000000       0.00000000      -0.00911232
2
Properties=species:S:1:pos:R:3:forces:R:3 energy=-0.29650364076326213 pbc="F F F"
Zn       0.00000000       0.00000000       0.00000000       0.00000000       0.00000000       0.00568030
Zn       0.00000000       0.00000000       3.94242424       0.00000000       0.00000000      -0.00568030
2
Properties=species:S:1:pos:R:3:forces:R:3 energy=-0.29627479877810214 pbc="F F F"
Zn       0.00000000       0.00000000       0.00000000       0.00000000       0.00000000       0.00209453
Zn       0.00000000       0.00000000       4.00121212       0.00000000       0.00000000      -0.00209453
2
Properties=species:S:1:pos:R:3:forces:R:3 energy=-0.29625677197473843 pbc="F F F"
Zn       0.00000000       0.00000000       0.00000000       0.00000000       0.00000000      -0.00145645
Zn       0.00000000       0.00000000       4.06000000       0.00000000       0.00000000       0.00145645
2
Properties=species:S:1:pos:R:3:forces:R:3 energy=-0.2964430414451094 pbc="F F F"
Zn       0.00000000       0.00000000       0.00000000       0.00000000       0.00000000      -0.00485193
Zn       0.00000000       0.00000000       4.11878788       0.00000000       0.00000000       0.00485193
2
Properties=species:S:1:pos:R:3:forces:R:3 energy=-0.2968229285033367 pbc="F F F"
Zn       0.00000000       0.00000000       0.00000000       0.00000000       0.00000000      -0.00803317
Zn       0.00000000       0.00000000       4.17757576       0.00000000       0.00000000       0.00803317
2
Properties=species:S:1:pos:R:3:forces:R:3 energy=-0.29738312552352775 pbc="F F F"
Zn       0.00000000       0.00000000       0.00000000       0.00000000       0.00000000      -0.01098896
Zn       0.00000000       0.00000000       4.23636364       0.00000000       0.00000000       0.01098896
2
Properties=species:S:1:pos:R:3:forces:R:3 energy=-0.29811090521109773 pbc="F F F"
Zn       0.00000000       0.00000000       0.00000000       0.00000000       0.00000000      -0.01373557
Zn       0.00000000       0.00000000       4.29515152       0.00000000       0.00000000       0.01373557
2
Properties=species:S:1:pos:R:3:forces:R:3 energy=-0.2989943869477725 pbc="F F F"
Zn       0.00000000       0.00000000       0.00000000       0.00000000       0.00000000      -0.01629631
Zn       0.00000000       0.00000000       4.35393939       0.00000000       0.00000000       0.01629631
2
Properties=species:S:1:pos:R:3:forces:R:3 energy=-0.30002359150017904 pbc="F F F"
Zn       0.00000000       0.00000000       0.00000000       0.00000000       0.00000000      -0.01868713
Zn       0.00000000       0.00000000       4.41272727       0.00000000       0.00000000       0.01868713
2
Properties=species:S:1:pos:R:3:forces:R:3 energy=-0.3011882667422349 pbc="F F F"
Zn       0.00000000       0.00000000       0.00000000       0.00000000       0.00000000      -0.02090532
Zn       0.00000000       0.00000000       4.47151515       0.00000000       0.00000000       0.02090532
2
Properties=species:S:1:pos:R:3:forces:R:3 energy=-0.3024776505284917 pbc="F F F"
Zn       0.00000000       0.00000000       0.00000000       0.00000000       0.00000000      -0.02292304
Zn       0.00000000       0.00000000       4.53030303       0.00000000       0.00000000       0.02292304
2
Properties=species:S:1:pos:R:3:forces:R:3 energy=-0.3038784803981504 pbc="F F F"
Zn       0.00000000       0.00000000       0.00000000       0.00000000       0.00000000      -0.02468495
Zn       0.00000000       0.00000000       4.58909091       0.00000000       0.00000000       0.02468495
2
Properties=species:S:1:pos:R:3:forces:R:3 energy=-0.30537339692094123 pbc="F F F"
Zn       0.00000000       0.00000000       0.00000000       0.00000000       0.00000000      -0.02611219
Zn       0.00000000       0.00000000       4.64787879       0.00000000       0.00000000       0.02611219
2
Properties=species:S:1:pos:R:3:forces:R:3 energy=-0.3069402208138189 pbc="F F F"
Zn       0.00000000       0.00000000       0.00000000       0.00000000       0.00000000      -0.02711229
Zn       0.00000000       0.00000000       4.70666667       0.00000000       0.00000000       0.02711229
2
Properties=species:S:1:pos:R:3:forces:R:3 energy=-0.3085512684874827 pbc="F F F"
Zn       0.00000000       0.00000000       0.00000000       0.00000000       0.00000000      -0.02760829
Zn       0.00000000       0.00000000       4.76545455       0.00000000       0.00000000       0.02760829
2
Properties=species:S:1:pos:R:3:forces:R:3 energy=-0.3101758265150988 pbc="F F F"
Zn       0.00000000       0.00000000       0.00000000       0.00000000       0.00000000      -0.02756928
Zn       0.00000000       0.00000000       4.82424242       0.00000000       0.00000000       0.02756928
2
Properties=species:S:1:pos:R:3:forces:R:3 energy=-0.3117831838416163 pbc="F F F"
Zn       0.00000000       0.00000000       0.00000000       0.00000000       0.00000000      -0.02705554
Zn       0.00000000       0.00000000       4.88303030       0.00000000       0.00000000       0.02705554
2
Properties=species:S:1:pos:R:3:forces:R:3 energy=-0.31335103920650287 pbc="F F F"
Zn       0.00000000       0.00000000       0.00000000       0.00000000       0.00000000      -0.02624988
Zn       0.00000000       0.00000000       4.94181818       0.00000000       0.00000000       0.02624988
2
Properties=species:S:1:pos:R:3:forces:R:3 energy=-0.314870101080823 pbc="F F F"
Zn       0.00000000       0.00000000       0.00000000       0.00000000       0.00000000      -0.02546280
Zn       0.00000000       0.00000000       5.00060606       0.00000000       0.00000000       0.02546280
2
Properties=species:S:1:pos:R:3:forces:R:3 energy=-0.31635301656862946 pbc="F F F"
Zn       0.00000000       0.00000000       0.00000000       0.00000000       0.00000000      -0.02508708
Zn       0.00000000       0.00000000       5.05939394       0.00000000       0.00000000       0.02508708
2
Properties=species:S:1:pos:R:3:forces:R:3 energy=-0.317834893593567 pbc="F F F"
Zn       0.00000000       0.00000000       0.00000000       0.00000000       0.00000000      -0.02547166
Zn       0.00000000       0.00000000       5.11818182       0.00000000       0.00000000       0.02547166
2
Properties=species:S:1:pos:R:3:forces:R:3 energy=-0.3193651298948455 pbc="F F F"
Zn       0.00000000       0.00000000       0.00000000       0.00000000       0.00000000      -0.02672670
Zn       0.00000000       0.00000000       5.17696970       0.00000000       0.00000000       0.02672670
2
Properties=species:S:1:pos:R:3:forces:R:3 energy=-0.32098739249422814 pbc="F F F"
Zn       0.00000000       0.00000000       0.00000000       0.00000000       0.00000000      -0.02849008
Zn       0.00000000       0.00000000       5.23575758       0.00000000       0.00000000       0.02849008
2
Properties=species:S:1:pos:R:3:forces:R:3 energy=-0.32270607957994357 pbc="F F F"
Zn       0.00000000       0.00000000       0.00000000       0.00000000       0.00000000      -0.02980194
Zn       0.00000000       0.00000000       5.29454545       0.00000000       0.00000000       0.02980194
2
Properties=species:S:1:pos:R:3:forces:R:3 energy=-0.3244584762180854 pbc="F F F"
Zn       0.00000000       0.00000000       0.00000000       0.00000000       0.00000000      -0.02946616
Zn       0.00000000       0.00000000       5.35333333       0.00000000       0.00000000       0.02946616
2
Properties=species:S:1:pos:R:3:forces:R:3 energy=-0.326137603522405 pbc="F F F"
Zn       0.00000000       0.00000000       0.00000000       0.00000000       0.00000000      -0.02754766
Zn       0.00000000       0.00000000       5.41212121       0.00000000       0.00000000       0.02754766
2
Properties=species:S:1:pos:R:3:forces:R:3 energy=-0.32771974812751803 pbc="F F F"
Zn       0.00000000       0.00000000       0.00000000       0.00000000       0.00000000      -0.02672691
Zn       0.00000000       0.00000000       5.47090909       0.00000000       0.00000000       0.02672691
2
Properties=species:S:1:pos:R:3:forces:R:3 energy=-0.3293212749188416 pbc="F F F"
Zn       0.00000000       0.00000000       0.00000000       0.00000000       0.00000000      -0.02770689
Zn       0.00000000       0.00000000       5.52969697       0.00000000       0.00000000       0.02770689
2
Properties=species:S:1:pos:R:3:forces:R:3 energy=-0.3309117704681343 pbc="F F F"
Zn       0.00000000       0.00000000       0.00000000       0.00000000       0.00000000      -0.02558606
Zn       0.00000000       0.00000000       5.58848485       0.00000000       0.00000000       0.02558606
2
Properties=species:S:1:pos:R:3:forces:R:3 energy=-0.33225663721695375 pbc="F F F"
Zn       0.00000000       0.00000000       0.00000000       0.00000000       0.00000000      -0.01994638
Zn       0.00000000       0.00000000       5.64727273       0.00000000       0.00000000       0.01994638
2
Properties=species:S:1:pos:R:3:forces:R:3 energy=-0.3332917484748263 pbc="F F F"
Zn       0.00000000       0.00000000       0.00000000       0.00000000       0.00000000      -0.01609884
Zn       0.00000000       0.00000000       5.70606061       0.00000000       0.00000000       0.01609884
2
Properties=species:S:1:pos:R:3:forces:R:3 energy=-0.33426670689104143 pbc="F F F"
Zn       0.00000000       0.00000000       0.00000000       0.00000000       0.00000000      -0.01762370
Zn       0.00000000       0.00000000       5.76484848       0.00000000       0.00000000       0.01762370
2
Properties=species:S:1:pos:R:3:forces:R:3 energy=-0.335321956127603 pbc="F F F"
Zn       0.00000000       0.00000000       0.00000000       0.00000000       0.00000000      -0.01705212
Zn       0.00000000       0.00000000       5.82363636       0.00000000       0.00000000       0.01705212
2
Properties=species:S:1:pos:R:3:forces:R:3 energy=-0.3360939208864156 pbc="F F F"
Zn       0.00000000       0.00000000       0.00000000       0.00000000       0.00000000      -0.00826056
Zn       0.00000000       0.00000000       5.88242424       0.00000000       0.00000000       0.00826056
2
Properties=species:S:1:pos:R:3:forces:R:3 energy=-0.33626924811831616 pbc="F F F"
Zn       0.00000000       0.00000000       0.00000000       0.00000000       0.00000000       0.00183202
Zn       0.00000000       0.00000000       5.94121212       0.00000000       0.00000000      -0.00183202
2
Properties=species:S:1:pos:R:3:forces:R:3 energy=-0.3360060079971128 pbc="F F F"
Zn       0.00000000       0.00000000       0.00000000       0.00000000       0.00000000       0.00571529
Zn       0.00000000       0.00000000       6.00000000       0.00000000       0.00000000      -0.00571529
