2
Properties=species:S:1:pos:R:3:forces:R:3 energy=-626.36258962792 pbc="F F F"
Zr       0.00000000       0.00000000       0.00000000       0.00000000       0.00000000 -102338.28906250
Zr       0.00000000       0.00000000       0.18000000       0.00000000       0.00000000  102338.28906250
2
Properties=species:S:1:pos:R:3:forces:R:3 energy=-4262.46366384667 pbc="F F F"
Zr       0.00000000       0.00000000       0.00000000       0.00000000       0.00000000  -34863.01562500
Zr       0.00000000       0.00000000       0.23878788       0.00000000       0.00000000   34863.01562500
2
Properties=species:S:1:pos:R:3:forces:R:3 energy=-5545.73124197167 pbc="F F F"
Zr       0.00000000       0.00000000       0.00000000       0.00000000       0.00000000  -12229.90527344
Zr       0.00000000       0.00000000       0.29757576       0.00000000       0.00000000   12229.90527344
2
Properties=species:S:1:pos:R:3:forces:R:3 energy=-5926.67801931542 pbc="F F F"
Zr       0.00000000       0.00000000       0.00000000       0.00000000       0.00000000   -1738.66088867
Zr       0.00000000       0.00000000       0.35636364       0.00000000       0.00000000    1738.66088867
2
Properties=species:S:1:pos:R:3:forces:R:3 energy=-5815.620890402834 pbc="F F F"
Zr       0.00000000       0.00000000       0.00000000       0.00000000       0.00000000    5249.58105469
Zr       0.00000000       0.00000000       0.41515152       0.00000000       0.00000000   -5249.58105469
2
Properties=species:S:1:pos:R:3:forces:R:3 energy=-5324.367472427749 pbc="F F F"
Zr       0.00000000       0.00000000       0.00000000       0.00000000       0.00000000   11409.79785156
Zr       0.00000000       0.00000000       0.47393939       0.00000000       0.00000000  -11409.79785156
2
Properties=species:S:1:pos:R:3:forces:R:3 energy=-4481.875773196328 pbc="F F F"
Zr       0.00000000       0.00000000       0.00000000       0.00000000       0.00000000   17123.17968750
Zr       0.00000000       0.00000000       0.53272727       0.00000000       0.00000000  -17123.17968750
2
Properties=species:S:1:pos:R:3:forces:R:3 energy=-3342.0137126241098 pbc="F F F"
Zr       0.00000000       0.00000000       0.00000000       0.00000000       0.00000000   21221.32031250
Zr       0.00000000       0.00000000       0.59151515       0.00000000       0.00000000  -21221.32031250
2
Properties=species:S:1:pos:R:3:forces:R:3 energy=-2060.5471598453855 pbc="F F F"
Zr       0.00000000       0.00000000       0.00000000       0.00000000       0.00000000   21574.41015625
Zr       0.00000000       0.00000000       0.65030303       0.00000000       0.00000000  -21574.41015625
2
Properties=species:S:1:pos:R:3:forces:R:3 energy=-907.4332071453101 pbc="F F F"
Zr       0.00000000       0.00000000       0.00000000       0.00000000       0.00000000   16834.04882812
Zr       0.00000000       0.00000000       0.70909091       0.00000000       0.00000000  -16834.04882812
2
Properties=species:S:1:pos:R:3:forces:R:3 energy=-149.03522731394736 pbc="F F F"
Zr       0.00000000       0.00000000       0.00000000       0.00000000       0.00000000    8749.98242188
Zr       0.00000000       0.00000000       0.76787879       0.00000000       0.00000000   -8749.98242188
2
Properties=species:S:1:pos:R:3:forces:R:3 energy=132.2026115832253 pbc="F F F"
Zr       0.00000000       0.00000000       0.00000000       0.00000000       0.00000000    1213.16589355
Zr       0.00000000       0.00000000       0.82666667       0.00000000       0.00000000   -1213.16589355
2
Properties=species:S:1:pos:R:3:forces:R:3 energy=142.7172144470987 pbc="F F F"
Zr       0.00000000       0.00000000       0.00000000       0.00000000       0.00000000    -893.88354492
Zr       0.00000000       0.00000000       0.88545455       0.00000000       0.00000000     893.88354492
2
Properties=species:S:1:pos:R:3:forces:R:3 energy=76.67081276099928 pbc="F F F"
Zr       0.00000000       0.00000000       0.00000000       0.00000000       0.00000000    -633.52764893
Zr       0.00000000       0.00000000       0.94424242       0.00000000       0.00000000     633.52764893
2
Properties=species:S:1:pos:R:3:forces:R:3 energy=62.35381182370708 pbc="F F F"
Zr       0.00000000       0.00000000       0.00000000       0.00000000       0.00000000      92.88318634
Zr       0.00000000       0.00000000       1.00303030       0.00000000       0.00000000     -92.88318634
2
Properties=species:S:1:pos:R:3:forces:R:3 energy=70.48612132219779 pbc="F F F"
Zr       0.00000000       0.00000000       0.00000000       0.00000000       0.00000000     130.97595215
Zr       0.00000000       0.00000000       1.06181818       0.00000000       0.00000000    -130.97595215
2
Properties=species:S:1:pos:R:3:forces:R:3 energy=74.34969321145343 pbc="F F F"
Zr       0.00000000       0.00000000       0.00000000       0.00000000       0.00000000     -13.39094257
Zr       0.00000000       0.00000000       1.12060606       0.00000000       0.00000000      13.39094257
2
Properties=species:S:1:pos:R:3:forces:R:3 energy=69.36397638202692 pbc="F F F"
Zr       0.00000000       0.00000000       0.00000000       0.00000000       0.00000000    -145.20736694
Zr       0.00000000       0.00000000       1.17939394       0.00000000       0.00000000     145.20736694
2
Properties=species:S:1:pos:R:3:forces:R:3 energy=58.746599363607345 pbc="F F F"
Zr       0.00000000       0.00000000       0.00000000       0.00000000       0.00000000    -204.22079468
Zr       0.00000000       0.00000000       1.23818182       0.00000000       0.00000000     204.22079468
2
Properties=species:S:1:pos:R:3:forces:R:3 energy=46.38119870049616 pbc="F F F"
Zr       0.00000000       0.00000000       0.00000000       0.00000000       0.00000000    -210.76524353
Zr       0.00000000       0.00000000       1.29696970       0.00000000       0.00000000     210.76524353
2
Properties=species:S:1:pos:R:3:forces:R:3 energy=34.42514216234862 pbc="F F F"
Zr       0.00000000       0.00000000       0.00000000       0.00000000       0.00000000    -193.11018372
Zr       0.00000000       0.00000000       1.35575758       0.00000000       0.00000000     193.11018372
2
Properties=species:S:1:pos:R:3:forces:R:3 energy=23.937679728464744 pbc="F F F"
Zr       0.00000000       0.00000000       0.00000000       0.00000000       0.00000000    -162.17396545
Zr       0.00000000       0.00000000       1.41454545       0.00000000       0.00000000     162.17396545
2
Properties=species:S:1:pos:R:3:forces:R:3 energy=15.435847925531816 pbc="F F F"
Zr       0.00000000       0.00000000       0.00000000       0.00000000       0.00000000    -127.19135284
Zr       0.00000000       0.00000000       1.47333333       0.00000000       0.00000000     127.19135284
2
Properties=species:S:1:pos:R:3:forces:R:3 energy=8.90471995719105 pbc="F F F"
Zr       0.00000000       0.00000000       0.00000000       0.00000000       0.00000000     -95.99069977
Zr       0.00000000       0.00000000       1.53212121       0.00000000       0.00000000      95.99069977
2
Properties=species:S:1:pos:R:3:forces:R:3 energy=4.025734885708701 pbc="F F F"
Zr       0.00000000       0.00000000       0.00000000       0.00000000       0.00000000     -71.01549530
Zr       0.00000000       0.00000000       1.59090909       0.00000000       0.00000000      71.01549530
2
Properties=species:S:1:pos:R:3:forces:R:3 energy=0.4441837020619594 pbc="F F F"
Zr       0.00000000       0.00000000       0.00000000       0.00000000       0.00000000     -51.71275711
Zr       0.00000000       0.00000000       1.64969697       0.00000000       0.00000000      51.71275711
2
Properties=species:S:1:pos:R:3:forces:R:3 energy=-2.1545794219816274 pbc="F F F"
Zr       0.00000000       0.00000000       0.00000000       0.00000000       0.00000000     -37.51688004
Zr       0.00000000       0.00000000       1.70848485       0.00000000       0.00000000      37.51688004
2
Properties=species:S:1:pos:R:3:forces:R:3 energy=-4.053683279510274 pbc="F F F"
Zr       0.00000000       0.00000000       0.00000000       0.00000000       0.00000000     -27.71426010
Zr       0.00000000       0.00000000       1.76727273       0.00000000       0.00000000      27.71426010
2
Properties=species:S:1:pos:R:3:forces:R:3 energy=-5.469581471119325 pbc="F F F"
Zr       0.00000000       0.00000000       0.00000000       0.00000000       0.00000000     -20.80036736
Zr       0.00000000       0.00000000       1.82606061       0.00000000       0.00000000      20.80036736
2
Properties=species:S:1:pos:R:3:forces:R:3 energy=-6.527985384827759 pbc="F F F"
Zr       0.00000000       0.00000000       0.00000000       0.00000000       0.00000000     -15.37828541
Zr       0.00000000       0.00000000       1.88484848       0.00000000       0.00000000      15.37828541
2
Properties=species:S:1:pos:R:3:forces:R:3 energy=-7.293486212999552 pbc="F F F"
Zr       0.00000000       0.00000000       0.00000000       0.00000000       0.00000000     -10.77961445
Zr       0.00000000       0.00000000       1.94363636       0.00000000       0.00000000      10.77961445
2
Properties=species:S:1:pos:R:3:forces:R:3 energy=-7.80868388876386 pbc="F F F"
Zr       0.00000000       0.00000000       0.00000000       0.00000000       0.00000000      -6.86507511
Zr       0.00000000       0.00000000       2.00242424       0.00000000       0.00000000       6.86507511
2
Properties=species:S:1:pos:R:3:forces:R:3 energy=-8.115514606932557 pbc="F F F"
Zr       0.00000000       0.00000000       0.00000000       0.00000000       0.00000000      -3.70962930
Zr       0.00000000       0.00000000       2.06121212       0.00000000       0.00000000       3.70962930
2
Properties=species:S:1:pos:R:3:forces:R:3 energy=-8.261776823683041 pbc="F F F"
Zr       0.00000000       0.00000000       0.00000000       0.00000000       0.00000000      -1.41525221
Zr       0.00000000       0.00000000       2.12000000       0.00000000       0.00000000       1.41525221
2
Properties=species:S:1:pos:R:3:forces:R:3 energy=-8.299168835569558 pbc="F F F"
Zr       0.00000000       0.00000000       0.00000000       0.00000000       0.00000000       0.00502460
Zr       0.00000000       0.00000000       2.17878788       0.00000000       0.00000000      -0.00502460
2
Properties=species:S:1:pos:R:3:forces:R:3 energy=-8.275283255508791 pbc="F F F"
Zr       0.00000000       0.00000000       0.00000000       0.00000000       0.00000000       0.71097732
Zr       0.00000000       0.00000000       2.23757576       0.00000000       0.00000000      -0.71097732
2
Properties=species:S:1:pos:R:3:forces:R:3 energy=-8.223888772056561 pbc="F F F"
Zr       0.00000000       0.00000000       0.00000000       0.00000000       0.00000000       0.99110788
Zr       0.00000000       0.00000000       2.29636364       0.00000000       0.00000000      -0.99110788
2
Properties=species:S:1:pos:R:3:forces:R:3 energy=-8.161963775461036 pbc="F F F"
Zr       0.00000000       0.00000000       0.00000000       0.00000000       0.00000000       1.10288274
Zr       0.00000000       0.00000000       2.35515152       0.00000000       0.00000000      -1.10288274
2
Properties=species:S:1:pos:R:3:forces:R:3 energy=-8.0947180674961 pbc="F F F"
Zr       0.00000000       0.00000000       0.00000000       0.00000000       0.00000000       1.18597317
Zr       0.00000000       0.00000000       2.41393939       0.00000000       0.00000000      -1.18597317
2
Properties=species:S:1:pos:R:3:forces:R:3 energy=-8.022115361565287 pbc="F F F"
Zr       0.00000000       0.00000000       0.00000000       0.00000000       0.00000000       1.28848004
Zr       0.00000000       0.00000000       2.47272727       0.00000000       0.00000000      -1.28848004
2
Properties=species:S:1:pos:R:3:forces:R:3 energy=-7.942712567767498 pbc="F F F"
Zr       0.00000000       0.00000000       0.00000000       0.00000000       0.00000000       1.41671550
Zr       0.00000000       0.00000000       2.53151515       0.00000000       0.00000000      -1.41671550
2
Properties=species:S:1:pos:R:3:forces:R:3 energy=-7.855190503211582 pbc="F F F"
Zr       0.00000000       0.00000000       0.00000000       0.00000000       0.00000000       1.56289458
Zr       0.00000000       0.00000000       2.59030303       0.00000000       0.00000000      -1.56289458
2
Properties=species:S:1:pos:R:3:forces:R:3 energy=-7.758829946242917 pbc="F F F"
Zr       0.00000000       0.00000000       0.00000000       0.00000000       0.00000000       1.71544647
Zr       0.00000000       0.00000000       2.64909091       0.00000000       0.00000000      -1.71544647
2
Properties=species:S:1:pos:R:3:forces:R:3 energy=-7.653600907386739 pbc="F F F"
Zr       0.00000000       0.00000000       0.00000000       0.00000000       0.00000000       1.86268079
Zr       0.00000000       0.00000000       2.70787879       0.00000000       0.00000000      -1.86268079
2
Properties=species:S:1:pos:R:3:forces:R:3 energy=-7.540137671457737 pbc="F F F"
Zr       0.00000000       0.00000000       0.00000000       0.00000000       0.00000000       1.99385917
Zr       0.00000000       0.00000000       2.76666667       0.00000000       0.00000000      -1.99385917
2
Properties=species:S:1:pos:R:3:forces:R:3 energy=-7.419678263624442 pbc="F F F"
Zr       0.00000000       0.00000000       0.00000000       0.00000000       0.00000000       2.09919357
Zr       0.00000000       0.00000000       2.82545455       0.00000000       0.00000000      -2.09919357
2
Properties=species:S:1:pos:R:3:forces:R:3 energy=-7.294003289269257 pbc="F F F"
Zr       0.00000000       0.00000000       0.00000000       0.00000000       0.00000000       2.16990495
Zr       0.00000000       0.00000000       2.88424242       0.00000000       0.00000000      -2.16990495
2
Properties=species:S:1:pos:R:3:forces:R:3 energy=-7.1653687980571314 pbc="F F F"
Zr       0.00000000       0.00000000       0.00000000       0.00000000       0.00000000       2.19899321
Zr       0.00000000       0.00000000       2.94303030       0.00000000       0.00000000      -2.19899321
2
Properties=species:S:1:pos:R:3:forces:R:3 energy=-7.03634910481703 pbc="F F F"
Zr       0.00000000       0.00000000       0.00000000       0.00000000       0.00000000       2.18264055
Zr       0.00000000       0.00000000       3.00181818       0.00000000       0.00000000      -2.18264055
2
Properties=species:S:1:pos:R:3:forces:R:3 energy=-6.909619620263424 pbc="F F F"
Zr       0.00000000       0.00000000       0.00000000       0.00000000       0.00000000       2.12169647
Zr       0.00000000       0.00000000       3.06060606       0.00000000       0.00000000      -2.12169647
2
Properties=species:S:1:pos:R:3:forces:R:3 energy=-6.787635691343582 pbc="F F F"
Zr       0.00000000       0.00000000       0.00000000       0.00000000       0.00000000       2.02292657
Zr       0.00000000       0.00000000       3.11939394       0.00000000       0.00000000      -2.02292657
2
Properties=species:S:1:pos:R:3:forces:R:3 energy=-6.672251446615415 pbc="F F F"
Zr       0.00000000       0.00000000       0.00000000       0.00000000       0.00000000       1.89995658
Zr       0.00000000       0.00000000       3.17818182       0.00000000       0.00000000      -1.89995658
2
Properties=species:S:1:pos:R:3:forces:R:3 energy=-6.564317973649876 pbc="F F F"
Zr       0.00000000       0.00000000       0.00000000       0.00000000       0.00000000       1.77345896
Zr       0.00000000       0.00000000       3.23696970       0.00000000       0.00000000      -1.77345896
2
Properties=species:S:1:pos:R:3:forces:R:3 energy=-6.463324970070403 pbc="F F F"
Zr       0.00000000       0.00000000       0.00000000       0.00000000       0.00000000       1.66766644
Zr       0.00000000       0.00000000       3.29575758       0.00000000       0.00000000      -1.66766644
2
Properties=species:S:1:pos:R:3:forces:R:3 energy=-6.367500977457123 pbc="F F F"
Zr       0.00000000       0.00000000       0.00000000       0.00000000       0.00000000       1.59888363
Zr       0.00000000       0.00000000       3.35454545       0.00000000       0.00000000      -1.59888363
2
Properties=species:S:1:pos:R:3:forces:R:3 energy=-6.274672179494736 pbc="F F F"
Zr       0.00000000       0.00000000       0.00000000       0.00000000       0.00000000       1.56341648
Zr       0.00000000       0.00000000       3.41333333       0.00000000       0.00000000      -1.56341648
2
Properties=species:S:1:pos:R:3:forces:R:3 energy=-6.18338534803328 pbc="F F F"
Zr       0.00000000       0.00000000       0.00000000       0.00000000       0.00000000       1.54320610
Zr       0.00000000       0.00000000       3.47212121       0.00000000       0.00000000      -1.54320610
2
Properties=species:S:1:pos:R:3:forces:R:3 energy=-6.093234627390488 pbc="F F F"
Zr       0.00000000       0.00000000       0.00000000       0.00000000       0.00000000       1.52306056
Zr       0.00000000       0.00000000       3.53090909       0.00000000       0.00000000      -1.52306056
2
Properties=species:S:1:pos:R:3:forces:R:3 energy=-6.0044376495170395 pbc="F F F"
Zr       0.00000000       0.00000000       0.00000000       0.00000000       0.00000000       1.49655223
Zr       0.00000000       0.00000000       3.58969697       0.00000000       0.00000000      -1.49655223
2
Properties=species:S:1:pos:R:3:forces:R:3 energy=-5.917444109754814 pbc="F F F"
Zr       0.00000000       0.00000000       0.00000000       0.00000000       0.00000000       1.46145320
Zr       0.00000000       0.00000000       3.64848485       0.00000000       0.00000000      -1.46145320
2
Properties=species:S:1:pos:R:3:forces:R:3 energy=-5.832803371270064 pbc="F F F"
Zr       0.00000000       0.00000000       0.00000000       0.00000000       0.00000000       1.41635954
Zr       0.00000000       0.00000000       3.70727273       0.00000000       0.00000000      -1.41635954
2
Properties=species:S:1:pos:R:3:forces:R:3 energy=-5.751121192878198 pbc="F F F"
Zr       0.00000000       0.00000000       0.00000000       0.00000000       0.00000000       1.36073983
Zr       0.00000000       0.00000000       3.76606061       0.00000000       0.00000000      -1.36073983
2
Properties=species:S:1:pos:R:3:forces:R:3 energy=-5.672997858875253 pbc="F F F"
Zr       0.00000000       0.00000000       0.00000000       0.00000000       0.00000000       1.29571855
Zr       0.00000000       0.00000000       3.82484848       0.00000000       0.00000000      -1.29571855
2
Properties=species:S:1:pos:R:3:forces:R:3 energy=-5.598906536548223 pbc="F F F"
Zr       0.00000000       0.00000000       0.00000000       0.00000000       0.00000000       1.22406828
Zr       0.00000000       0.00000000       3.88363636       0.00000000       0.00000000      -1.22406828
2
Properties=species:S:1:pos:R:3:forces:R:3 energy=-5.5291342558843715 pbc="F F F"
Zr       0.00000000       0.00000000       0.00000000       0.00000000       0.00000000       1.14948952
Zr       0.00000000       0.00000000       3.94242424       0.00000000       0.00000000      -1.14948952
2
Properties=species:S:1:pos:R:3:forces:R:3 energy=-5.463741199735939 pbc="F F F"
Zr       0.00000000       0.00000000       0.00000000       0.00000000       0.00000000       1.07562840
Zr       0.00000000       0.00000000       4.00121212       0.00000000       0.00000000      -1.07562840
2
Properties=species:S:1:pos:R:3:forces:R:3 energy=-5.402594943749148 pbc="F F F"
Zr       0.00000000       0.00000000       0.00000000       0.00000000       0.00000000       1.00537586
Zr       0.00000000       0.00000000       4.06000000       0.00000000       0.00000000      -1.00537586
2
Properties=species:S:1:pos:R:3:forces:R:3 energy=-5.3454261352780845 pbc="F F F"
Zr       0.00000000       0.00000000       0.00000000       0.00000000       0.00000000       0.94057590
Zr       0.00000000       0.00000000       4.11878788       0.00000000       0.00000000      -0.94057590
2
Properties=species:S:1:pos:R:3:forces:R:3 energy=-5.29188185313307 pbc="F F F"
Zr       0.00000000       0.00000000       0.00000000       0.00000000       0.00000000       0.88207453
Zr       0.00000000       0.00000000       4.17757576       0.00000000       0.00000000      -0.88207453
2
Properties=species:S:1:pos:R:3:forces:R:3 energy=-5.2415888541964755 pbc="F F F"
Zr       0.00000000       0.00000000       0.00000000       0.00000000       0.00000000       0.82995492
Zr       0.00000000       0.00000000       4.23636364       0.00000000       0.00000000      -0.82995492
2
Properties=species:S:1:pos:R:3:forces:R:3 energy=-5.194182050603675 pbc="F F F"
Zr       0.00000000       0.00000000       0.00000000       0.00000000       0.00000000       0.78376079
Zr       0.00000000       0.00000000       4.29515152       0.00000000       0.00000000      -0.78376079
2
Properties=species:S:1:pos:R:3:forces:R:3 energy=-5.149337671268386 pbc="F F F"
Zr       0.00000000       0.00000000       0.00000000       0.00000000       0.00000000       0.74270511
Zr       0.00000000       0.00000000       4.35393939       0.00000000       0.00000000      -0.74270511
2
Properties=species:S:1:pos:R:3:forces:R:3 energy=-5.1067780049116696 pbc="F F F"
Zr       0.00000000       0.00000000       0.00000000       0.00000000       0.00000000       0.70578730
Zr       0.00000000       0.00000000       4.41272727       0.00000000       0.00000000      -0.70578730
2
Properties=species:S:1:pos:R:3:forces:R:3 energy=-5.066294733404462 pbc="F F F"
Zr       0.00000000       0.00000000       0.00000000       0.00000000       0.00000000       0.67188954
Zr       0.00000000       0.00000000       4.47151515       0.00000000       0.00000000      -0.67188954
2
Properties=species:S:1:pos:R:3:forces:R:3 energy=-5.027742865933049 pbc="F F F"
Zr       0.00000000       0.00000000       0.00000000       0.00000000       0.00000000       0.63987255
Zr       0.00000000       0.00000000       4.53030303       0.00000000       0.00000000      -0.63987255
2
Properties=species:S:1:pos:R:3:forces:R:3 energy=-4.991046334332076 pbc="F F F"
Zr       0.00000000       0.00000000       0.00000000       0.00000000       0.00000000       0.60863060
Zr       0.00000000       0.00000000       4.58909091       0.00000000       0.00000000      -0.60863060
2
Properties=species:S:1:pos:R:3:forces:R:3 energy=-4.956187127200223 pbc="F F F"
Zr       0.00000000       0.00000000       0.00000000       0.00000000       0.00000000       0.57720512
Zr       0.00000000       0.00000000       4.64787879       0.00000000       0.00000000      -0.57720512
2
Properties=species:S:1:pos:R:3:forces:R:3 energy=-4.923199358778037 pbc="F F F"
Zr       0.00000000       0.00000000       0.00000000       0.00000000       0.00000000       0.54481542
Zr       0.00000000       0.00000000       4.70666667       0.00000000       0.00000000      -0.54481542
2
Properties=species:S:1:pos:R:3:forces:R:3 energy=-4.892159356737927 pbc="F F F"
Zr       0.00000000       0.00000000       0.00000000       0.00000000       0.00000000       0.51095337
Zr       0.00000000       0.00000000       4.76545455       0.00000000       0.00000000      -0.51095337
2
Properties=species:S:1:pos:R:3:forces:R:3 energy=-4.863155901875375 pbc="F F F"
Zr       0.00000000       0.00000000       0.00000000       0.00000000       0.00000000       0.47542039
Zr       0.00000000       0.00000000       4.82424242       0.00000000       0.00000000      -0.47542039
2
Properties=species:S:1:pos:R:3:forces:R:3 energy=-4.836291169111968 pbc="F F F"
Zr       0.00000000       0.00000000       0.00000000       0.00000000       0.00000000       0.43842795
Zr       0.00000000       0.00000000       4.88303030       0.00000000       0.00000000      -0.43842795
2
Properties=species:S:1:pos:R:3:forces:R:3 energy=-4.811624257970111 pbc="F F F"
Zr       0.00000000       0.00000000       0.00000000       0.00000000       0.00000000       0.40064341
Zr       0.00000000       0.00000000       4.94181818       0.00000000       0.00000000      -0.40064341
2
Properties=species:S:1:pos:R:3:forces:R:3 energy=-4.7891754144153635 pbc="F F F"
Zr       0.00000000       0.00000000       0.00000000       0.00000000       0.00000000       0.36331558
Zr       0.00000000       0.00000000       5.00060606       0.00000000       0.00000000      -0.36331558
2
Properties=species:S:1:pos:R:3:forces:R:3 energy=-4.768863997676364 pbc="F F F"
Zr       0.00000000       0.00000000       0.00000000       0.00000000       0.00000000       0.32814735
Zr       0.00000000       0.00000000       5.05939394       0.00000000       0.00000000      -0.32814735
2
Properties=species:S:1:pos:R:3:forces:R:3 energy=-4.750513421342644 pbc="F F F"
Zr       0.00000000       0.00000000       0.00000000       0.00000000       0.00000000       0.29700172
Zr       0.00000000       0.00000000       5.11818182       0.00000000       0.00000000      -0.29700172
2
Properties=species:S:1:pos:R:3:forces:R:3 energy=-4.733839219764382 pbc="F F F"
Zr       0.00000000       0.00000000       0.00000000       0.00000000       0.00000000       0.27121601
Zr       0.00000000       0.00000000       5.17696970       0.00000000       0.00000000      -0.27121601
2
Properties=species:S:1:pos:R:3:forces:R:3 energy=-4.718520033432536 pbc="F F F"
Zr       0.00000000       0.00000000       0.00000000       0.00000000       0.00000000       0.25073734
Zr       0.00000000       0.00000000       5.23575758       0.00000000       0.00000000      -0.25073734
2
Properties=species:S:1:pos:R:3:forces:R:3 energy=-4.704295571336371 pbc="F F F"
Zr       0.00000000       0.00000000       0.00000000       0.00000000       0.00000000       0.23344603
Zr       0.00000000       0.00000000       5.29454545       0.00000000       0.00000000      -0.23344603
2
Properties=species:S:1:pos:R:3:forces:R:3 energy=-4.691075393191973 pbc="F F F"
Zr       0.00000000       0.00000000       0.00000000       0.00000000       0.00000000       0.21607593
Zr       0.00000000       0.00000000       5.35333333       0.00000000       0.00000000      -0.21607593
2
Properties=species:S:1:pos:R:3:forces:R:3 energy=-4.67890345876579 pbc="F F F"
Zr       0.00000000       0.00000000       0.00000000       0.00000000       0.00000000       0.19831762
Zr       0.00000000       0.00000000       5.41212121       0.00000000       0.00000000      -0.19831762
2
Properties=species:S:1:pos:R:3:forces:R:3 energy=-4.667659551785865 pbc="F F F"
Zr       0.00000000       0.00000000       0.00000000       0.00000000       0.00000000       0.18536785
Zr       0.00000000       0.00000000       5.47090909       0.00000000       0.00000000      -0.18536785
2
Properties=species:S:1:pos:R:3:forces:R:3 energy=-4.657022070804385 pbc="F F F"
Zr       0.00000000       0.00000000       0.00000000       0.00000000       0.00000000       0.17623389
Zr       0.00000000       0.00000000       5.52969697       0.00000000       0.00000000      -0.17623389
2
Properties=species:S:1:pos:R:3:forces:R:3 energy=-4.647081263957888 pbc="F F F"
Zr       0.00000000       0.00000000       0.00000000       0.00000000       0.00000000       0.16043732
Zr       0.00000000       0.00000000       5.58848485       0.00000000       0.00000000      -0.16043732
2
Properties=species:S:1:pos:R:3:forces:R:3 energy=-4.638275225082108 pbc="F F F"
Zr       0.00000000       0.00000000       0.00000000       0.00000000       0.00000000       0.13928440
Zr       0.00000000       0.00000000       5.64727273       0.00000000       0.00000000      -0.13928440
2
Properties=species:S:1:pos:R:3:forces:R:3 energy=-4.630572136992589 pbc="F F F"
Zr       0.00000000       0.00000000       0.00000000       0.00000000       0.00000000       0.12493464
Zr       0.00000000       0.00000000       5.70606061       0.00000000       0.00000000      -0.12493464
2
Properties=species:S:1:pos:R:3:forces:R:3 energy=-4.623303944015495 pbc="F F F"
Zr       0.00000000       0.00000000       0.00000000       0.00000000       0.00000000       0.12309383
Zr       0.00000000       0.00000000       5.76484848       0.00000000       0.00000000      -0.12309383
2
Properties=species:S:1:pos:R:3:forces:R:3 energy=-4.6162697151578245 pbc="F F F"
Zr       0.00000000       0.00000000       0.00000000       0.00000000       0.00000000       0.11252366
Zr       0.00000000       0.00000000       5.82363636       0.00000000       0.00000000      -0.11252366
2
Properties=species:S:1:pos:R:3:forces:R:3 energy=-4.610572505991346 pbc="F F F"
Zr       0.00000000       0.00000000       0.00000000       0.00000000       0.00000000       0.07903247
Zr       0.00000000       0.00000000       5.88242424       0.00000000       0.00000000      -0.07903247
2
Properties=species:S:1:pos:R:3:forces:R:3 energy=-4.6070244777425815 pbc="F F F"
Zr       0.00000000       0.00000000       0.00000000       0.00000000       0.00000000       0.04325264
Zr       0.00000000       0.00000000       5.94121212       0.00000000       0.00000000      -0.04325264
2
Properties=species:S:1:pos:R:3:forces:R:3 energy=-4.6050610630558495 pbc="F F F"
Zr       0.00000000       0.00000000       0.00000000       0.00000000       0.00000000       0.02814879
Zr       0.00000000       0.00000000       6.00000000       0.00000000       0.00000000      -0.02814879
