2
Properties=species:S:1:pos:R:3:forces:R:3 energy=-12494.70738200461 pbc="F F F"
B        0.00000000       0.00000000       0.00000000       0.00000000       0.00000000     940.24505615
B        0.00000000       0.00000000       0.18000000       0.00000000       0.00000000    -940.24505615
2
Properties=species:S:1:pos:R:3:forces:R:3 energy=-11284.473983565525 pbc="F F F"
B        0.00000000       0.00000000       0.00000000       0.00000000       0.00000000   37971.47656250
B        0.00000000       0.00000000       0.23878788       0.00000000       0.00000000  -37971.47656250
2
Properties=species:S:1:pos:R:3:forces:R:3 energy=-8454.819686687357 pbc="F F F"
B        0.00000000       0.00000000       0.00000000       0.00000000       0.00000000   54120.54687500
B        0.00000000       0.00000000       0.29757576       0.00000000       0.00000000  -54120.54687500
2
Properties=species:S:1:pos:R:3:forces:R:3 energy=-5883.910995274771 pbc="F F F"
B        0.00000000       0.00000000       0.00000000       0.00000000       0.00000000   49084.91406250
B        0.00000000       0.00000000       0.35636364       0.00000000       0.00000000  -49084.91406250
2
Properties=species:S:1:pos:R:3:forces:R:3 energy=-3095.9986417433074 pbc="F F F"
B        0.00000000       0.00000000       0.00000000       0.00000000       0.00000000   41734.63671875
B        0.00000000       0.00000000       0.41515152       0.00000000       0.00000000  -41734.63671875
2
Properties=species:S:1:pos:R:3:forces:R:3 energy=-1160.4893643662954 pbc="F F F"
B        0.00000000       0.00000000       0.00000000       0.00000000       0.00000000   23911.99609375
B        0.00000000       0.00000000       0.47393939       0.00000000       0.00000000  -23911.99609375
2
Properties=species:S:1:pos:R:3:forces:R:3 energy=-266.11546293733534 pbc="F F F"
B        0.00000000       0.00000000       0.00000000       0.00000000       0.00000000    8194.20214844
B        0.00000000       0.00000000       0.53272727       0.00000000       0.00000000   -8194.20214844
2
Properties=species:S:1:pos:R:3:forces:R:3 energy=-21.646478227331457 pbc="F F F"
B        0.00000000       0.00000000       0.00000000       0.00000000       0.00000000    1449.71411133
B        0.00000000       0.00000000       0.59151515       0.00000000       0.00000000   -1449.71411133
2
Properties=species:S:1:pos:R:3:forces:R:3 energy=13.245897892943683 pbc="F F F"
B        0.00000000       0.00000000       0.00000000       0.00000000       0.00000000     -25.15241241
B        0.00000000       0.00000000       0.65030303       0.00000000       0.00000000      25.15241241
2
Properties=species:S:1:pos:R:3:forces:R:3 energy=19.080693168297067 pbc="F F F"
B        0.00000000       0.00000000       0.00000000       0.00000000       0.00000000     140.04917908
B        0.00000000       0.00000000       0.70909091       0.00000000       0.00000000    -140.04917908
2
Properties=species:S:1:pos:R:3:forces:R:3 energy=29.26328407423655 pbc="F F F"
B        0.00000000       0.00000000       0.00000000       0.00000000       0.00000000      -2.00693369
B        0.00000000       0.00000000       0.76787879       0.00000000       0.00000000       2.00693369
2
Properties=species:S:1:pos:R:3:forces:R:3 energy=24.254152308291875 pbc="F F F"
B        0.00000000       0.00000000       0.00000000       0.00000000       0.00000000    -118.98014832
B        0.00000000       0.00000000       0.82666667       0.00000000       0.00000000     118.98014832
2
Properties=species:S:1:pos:R:3:forces:R:3 energy=17.104418701379586 pbc="F F F"
B        0.00000000       0.00000000       0.00000000       0.00000000       0.00000000    -117.29530334
B        0.00000000       0.00000000       0.88545455       0.00000000       0.00000000     117.29530334
2
Properties=species:S:1:pos:R:3:forces:R:3 energy=10.773651357960793 pbc="F F F"
B        0.00000000       0.00000000       0.00000000       0.00000000       0.00000000     -98.21234894
B        0.00000000       0.00000000       0.94424242       0.00000000       0.00000000      98.21234894
2
Properties=species:S:1:pos:R:3:forces:R:3 energy=5.5454082855067 pbc="F F F"
B        0.00000000       0.00000000       0.00000000       0.00000000       0.00000000     -77.74436951
B        0.00000000       0.00000000       1.00303030       0.00000000       0.00000000      77.74436951
2
Properties=species:S:1:pos:R:3:forces:R:3 energy=1.63313527893408 pbc="F F F"
B        0.00000000       0.00000000       0.00000000       0.00000000       0.00000000     -54.69532776
B        0.00000000       0.00000000       1.06181818       0.00000000       0.00000000      54.69532776
2
Properties=species:S:1:pos:R:3:forces:R:3 energy=-1.1138738056520685 pbc="F F F"
B        0.00000000       0.00000000       0.00000000       0.00000000       0.00000000     -39.12785721
B        0.00000000       0.00000000       1.12060606       0.00000000       0.00000000      39.12785721
2
Properties=species:S:1:pos:R:3:forces:R:3 energy=-3.028402485137617 pbc="F F F"
B        0.00000000       0.00000000       0.00000000       0.00000000       0.00000000     -25.70764732
B        0.00000000       0.00000000       1.17939394       0.00000000       0.00000000      25.70764732
2
Properties=species:S:1:pos:R:3:forces:R:3 energy=-4.225000193622767 pbc="F F F"
B        0.00000000       0.00000000       0.00000000       0.00000000       0.00000000     -15.40346909
B        0.00000000       0.00000000       1.23818182       0.00000000       0.00000000      15.40346909
2
Properties=species:S:1:pos:R:3:forces:R:3 energy=-4.984270172026424 pbc="F F F"
B        0.00000000       0.00000000       0.00000000       0.00000000       0.00000000     -10.23216534
B        0.00000000       0.00000000       1.29696970       0.00000000       0.00000000      10.23216534
2
Properties=species:S:1:pos:R:3:forces:R:3 energy=-5.449607749203081 pbc="F F F"
B        0.00000000       0.00000000       0.00000000       0.00000000       0.00000000      -5.88977194
B        0.00000000       0.00000000       1.35575758       0.00000000       0.00000000       5.88977194
2
Properties=species:S:1:pos:R:3:forces:R:3 energy=-5.725886724931298 pbc="F F F"
B        0.00000000       0.00000000       0.00000000       0.00000000       0.00000000      -3.56983376
B        0.00000000       0.00000000       1.41454545       0.00000000       0.00000000       3.56983376
2
Properties=species:S:1:pos:R:3:forces:R:3 energy=-5.870942397617423 pbc="F F F"
B        0.00000000       0.00000000       0.00000000       0.00000000       0.00000000      -1.51375687
B        0.00000000       0.00000000       1.47333333       0.00000000       0.00000000       1.51375687
2
Properties=species:S:1:pos:R:3:forces:R:3 energy=-5.904696765233976 pbc="F F F"
B        0.00000000       0.00000000       0.00000000       0.00000000       0.00000000       0.27416715
B        0.00000000       0.00000000       1.53212121       0.00000000       0.00000000      -0.27416715
2
Properties=species:S:1:pos:R:3:forces:R:3 energy=-5.858174270574366 pbc="F F F"
B        0.00000000       0.00000000       0.00000000       0.00000000       0.00000000       1.26523447
B        0.00000000       0.00000000       1.59090909       0.00000000       0.00000000      -1.26523447
2
Properties=species:S:1:pos:R:3:forces:R:3 energy=-5.758379428639467 pbc="F F F"
B        0.00000000       0.00000000       0.00000000       0.00000000       0.00000000       2.14374447
B        0.00000000       0.00000000       1.64969697       0.00000000       0.00000000      -2.14374447
2
Properties=species:S:1:pos:R:3:forces:R:3 energy=-5.608596042613093 pbc="F F F"
B        0.00000000       0.00000000       0.00000000       0.00000000       0.00000000       2.94780827
B        0.00000000       0.00000000       1.70848485       0.00000000       0.00000000      -2.94780827
2
Properties=species:S:1:pos:R:3:forces:R:3 energy=-5.426878390694389 pbc="F F F"
B        0.00000000       0.00000000       0.00000000       0.00000000       0.00000000       3.07445192
B        0.00000000       0.00000000       1.76727273       0.00000000       0.00000000      -3.07445192
2
Properties=species:S:1:pos:R:3:forces:R:3 energy=-5.238651332697158 pbc="F F F"
B        0.00000000       0.00000000       0.00000000       0.00000000       0.00000000       3.48855829
B        0.00000000       0.00000000       1.82606061       0.00000000       0.00000000      -3.48855829
2
Properties=species:S:1:pos:R:3:forces:R:3 energy=-5.016716560398781 pbc="F F F"
B        0.00000000       0.00000000       0.00000000       0.00000000       0.00000000       3.98358321
B        0.00000000       0.00000000       1.88484848       0.00000000       0.00000000      -3.98358321
2
Properties=species:S:1:pos:R:3:forces:R:3 energy=-4.7817205271976615 pbc="F F F"
B        0.00000000       0.00000000       0.00000000       0.00000000       0.00000000       3.95877600
B        0.00000000       0.00000000       1.94363636       0.00000000       0.00000000      -3.95877600
2
Properties=species:S:1:pos:R:3:forces:R:3 energy=-4.556213674820588 pbc="F F F"
B        0.00000000       0.00000000       0.00000000       0.00000000       0.00000000       3.66977215
B        0.00000000       0.00000000       2.00242424       0.00000000       0.00000000      -3.66977215
2
Properties=species:S:1:pos:R:3:forces:R:3 energy=-4.3476895281041585 pbc="F F F"
B        0.00000000       0.00000000       0.00000000       0.00000000       0.00000000       3.50054336
B        0.00000000       0.00000000       2.06121212       0.00000000       0.00000000      -3.50054336
2
Properties=species:S:1:pos:R:3:forces:R:3 energy=-4.139799867323577 pbc="F F F"
B        0.00000000       0.00000000       0.00000000       0.00000000       0.00000000       3.59373236
B        0.00000000       0.00000000       2.12000000       0.00000000       0.00000000      -3.59373236
2
Properties=species:S:1:pos:R:3:forces:R:3 energy=-3.9239364014349323 pbc="F F F"
B        0.00000000       0.00000000       0.00000000       0.00000000       0.00000000       3.72620559
B        0.00000000       0.00000000       2.17878788       0.00000000       0.00000000      -3.72620559
2
Properties=species:S:1:pos:R:3:forces:R:3 energy=-3.7056606039788726 pbc="F F F"
B        0.00000000       0.00000000       0.00000000       0.00000000       0.00000000       3.68234086
B        0.00000000       0.00000000       2.23757576       0.00000000       0.00000000      -3.68234086
2
Properties=species:S:1:pos:R:3:forces:R:3 energy=-3.492062354553069 pbc="F F F"
B        0.00000000       0.00000000       0.00000000       0.00000000       0.00000000       3.56964993
B        0.00000000       0.00000000       2.29636364       0.00000000       0.00000000      -3.56964993
2
Properties=species:S:1:pos:R:3:forces:R:3 energy=-3.2880489843675447 pbc="F F F"
B        0.00000000       0.00000000       0.00000000       0.00000000       0.00000000       3.36304975
B        0.00000000       0.00000000       2.35515152       0.00000000       0.00000000      -3.36304975
2
Properties=species:S:1:pos:R:3:forces:R:3 energy=-3.0956117033312847 pbc="F F F"
B        0.00000000       0.00000000       0.00000000       0.00000000       0.00000000       3.19778442
B        0.00000000       0.00000000       2.41393939       0.00000000       0.00000000      -3.19778442
2
Properties=species:S:1:pos:R:3:forces:R:3 energy=-2.91166337543719 pbc="F F F"
B        0.00000000       0.00000000       0.00000000       0.00000000       0.00000000       3.05306435
B        0.00000000       0.00000000       2.47272727       0.00000000       0.00000000      -3.05306435
2
Properties=species:S:1:pos:R:3:forces:R:3 energy=-2.7378388646913154 pbc="F F F"
B        0.00000000       0.00000000       0.00000000       0.00000000       0.00000000       2.85129738
B        0.00000000       0.00000000       2.53151515       0.00000000       0.00000000      -2.85129738
2
Properties=species:S:1:pos:R:3:forces:R:3 energy=-2.5773480695094624 pbc="F F F"
B        0.00000000       0.00000000       0.00000000       0.00000000       0.00000000       2.60181141
B        0.00000000       0.00000000       2.59030303       0.00000000       0.00000000      -2.60181141
2
Properties=species:S:1:pos:R:3:forces:R:3 energy=-2.432537788507755 pbc="F F F"
B        0.00000000       0.00000000       0.00000000       0.00000000       0.00000000       2.32228231
B        0.00000000       0.00000000       2.64909091       0.00000000       0.00000000      -2.32228231
2
Properties=species:S:1:pos:R:3:forces:R:3 energy=-2.3041666012569446 pbc="F F F"
B        0.00000000       0.00000000       0.00000000       0.00000000       0.00000000       2.04928803
B        0.00000000       0.00000000       2.70787879       0.00000000       0.00000000      -2.04928803
2
Properties=species:S:1:pos:R:3:forces:R:3 energy=-2.190935790239592 pbc="F F F"
B        0.00000000       0.00000000       0.00000000       0.00000000       0.00000000       1.80849230
B        0.00000000       0.00000000       2.76666667       0.00000000       0.00000000      -1.80849230
2
Properties=species:S:1:pos:R:3:forces:R:3 energy=-2.0909721173507254 pbc="F F F"
B        0.00000000       0.00000000       0.00000000       0.00000000       0.00000000       1.59602284
B        0.00000000       0.00000000       2.82545455       0.00000000       0.00000000      -1.59602284
2
Properties=species:S:1:pos:R:3:forces:R:3 energy=-2.0029572974063226 pbc="F F F"
B        0.00000000       0.00000000       0.00000000       0.00000000       0.00000000       1.40047657
B        0.00000000       0.00000000       2.88424242       0.00000000       0.00000000      -1.40047657
2
Properties=species:S:1:pos:R:3:forces:R:3 energy=-1.9260453230852446 pbc="F F F"
B        0.00000000       0.00000000       0.00000000       0.00000000       0.00000000       1.21874738
B        0.00000000       0.00000000       2.94303030       0.00000000       0.00000000      -1.21874738
2
Properties=species:S:1:pos:R:3:forces:R:3 energy=-1.8592656136948063 pbc="F F F"
B        0.00000000       0.00000000       0.00000000       0.00000000       0.00000000       1.05723667
B        0.00000000       0.00000000       3.00181818       0.00000000       0.00000000      -1.05723667
2
Properties=species:S:1:pos:R:3:forces:R:3 energy=-1.8012303797076354 pbc="F F F"
B        0.00000000       0.00000000       0.00000000       0.00000000       0.00000000       0.92131716
B        0.00000000       0.00000000       3.06060606       0.00000000       0.00000000      -0.92131716
2
Properties=species:S:1:pos:R:3:forces:R:3 energy=-1.750515230680762 pbc="F F F"
B        0.00000000       0.00000000       0.00000000       0.00000000       0.00000000       0.80701637
B        0.00000000       0.00000000       3.11939394       0.00000000       0.00000000      -0.80701637
2
Properties=species:S:1:pos:R:3:forces:R:3 energy=-1.706058831318457 pbc="F F F"
B        0.00000000       0.00000000       0.00000000       0.00000000       0.00000000       0.70755315
B        0.00000000       0.00000000       3.17818182       0.00000000       0.00000000      -0.70755315
2
Properties=species:S:1:pos:R:3:forces:R:3 energy=-1.6670961791161278 pbc="F F F"
B        0.00000000       0.00000000       0.00000000       0.00000000       0.00000000       0.61972362
B        0.00000000       0.00000000       3.23696970       0.00000000       0.00000000      -0.61972362
2
Properties=species:S:1:pos:R:3:forces:R:3 energy=-1.633006966976187 pbc="F F F"
B        0.00000000       0.00000000       0.00000000       0.00000000       0.00000000       0.54149044
B        0.00000000       0.00000000       3.29575758       0.00000000       0.00000000      -0.54149044
2
Properties=species:S:1:pos:R:3:forces:R:3 energy=-1.6032888581524392 pbc="F F F"
B        0.00000000       0.00000000       0.00000000       0.00000000       0.00000000       0.47061503
B        0.00000000       0.00000000       3.35454545       0.00000000       0.00000000      -0.47061503
2
Properties=species:S:1:pos:R:3:forces:R:3 energy=-1.5775535986929041 pbc="F F F"
B        0.00000000       0.00000000       0.00000000       0.00000000       0.00000000       0.40583810
B        0.00000000       0.00000000       3.41333333       0.00000000       0.00000000      -0.40583810
2
Properties=species:S:1:pos:R:3:forces:R:3 energy=-1.5554439733304708 pbc="F F F"
B        0.00000000       0.00000000       0.00000000       0.00000000       0.00000000       0.34751108
B        0.00000000       0.00000000       3.47212121       0.00000000       0.00000000      -0.34751108
2
Properties=species:S:1:pos:R:3:forces:R:3 energy=-1.5365487716615396 pbc="F F F"
B        0.00000000       0.00000000       0.00000000       0.00000000       0.00000000       0.29670393
B        0.00000000       0.00000000       3.53090909       0.00000000       0.00000000      -0.29670393
2
Properties=species:S:1:pos:R:3:forces:R:3 energy=-1.5204074694024956 pbc="F F F"
B        0.00000000       0.00000000       0.00000000       0.00000000       0.00000000       0.25361076
B        0.00000000       0.00000000       3.58969697       0.00000000       0.00000000      -0.25361076
2
Properties=species:S:1:pos:R:3:forces:R:3 energy=-1.5066034746447217 pbc="F F F"
B        0.00000000       0.00000000       0.00000000       0.00000000       0.00000000       0.21690279
B        0.00000000       0.00000000       3.64848485       0.00000000       0.00000000      -0.21690279
2
Properties=species:S:1:pos:R:3:forces:R:3 energy=-1.4948222148727905 pbc="F F F"
B        0.00000000       0.00000000       0.00000000       0.00000000       0.00000000       0.18449159
B        0.00000000       0.00000000       3.70727273       0.00000000       0.00000000      -0.18449159
2
Properties=species:S:1:pos:R:3:forces:R:3 energy=-1.484861411970038 pbc="F F F"
B        0.00000000       0.00000000       0.00000000       0.00000000       0.00000000       0.15473072
B        0.00000000       0.00000000       3.76606061       0.00000000       0.00000000      -0.15473072
2
Properties=species:S:1:pos:R:3:forces:R:3 energy=-1.4765871324205444 pbc="F F F"
B        0.00000000       0.00000000       0.00000000       0.00000000       0.00000000       0.12708025
B        0.00000000       0.00000000       3.82484848       0.00000000       0.00000000      -0.12708025
2
Properties=species:S:1:pos:R:3:forces:R:3 energy=-1.4698688012392662 pbc="F F F"
B        0.00000000       0.00000000       0.00000000       0.00000000       0.00000000       0.10198604
B        0.00000000       0.00000000       3.88363636       0.00000000       0.00000000      -0.10198604
2
Properties=species:S:1:pos:R:3:forces:R:3 energy=-1.464528565366425 pbc="F F F"
B        0.00000000       0.00000000       0.00000000       0.00000000       0.00000000       0.08029365
B        0.00000000       0.00000000       3.94242424       0.00000000       0.00000000      -0.08029365
2
Properties=species:S:1:pos:R:3:forces:R:3 energy=-1.4603507860611604 pbc="F F F"
B        0.00000000       0.00000000       0.00000000       0.00000000       0.00000000       0.06265350
B        0.00000000       0.00000000       4.00121212       0.00000000       0.00000000      -0.06265350
2
Properties=species:S:1:pos:R:3:forces:R:3 energy=-1.4570801141298757 pbc="F F F"
B        0.00000000       0.00000000       0.00000000       0.00000000       0.00000000       0.04922947
B        0.00000000       0.00000000       4.06000000       0.00000000       0.00000000      -0.04922947
2
Properties=species:S:1:pos:R:3:forces:R:3 energy=-1.45448151676324 pbc="F F F"
B        0.00000000       0.00000000       0.00000000       0.00000000       0.00000000       0.03972997
B        0.00000000       0.00000000       4.11878788       0.00000000       0.00000000      -0.03972997
2
Properties=species:S:1:pos:R:3:forces:R:3 energy=-1.4523441738048732 pbc="F F F"
B        0.00000000       0.00000000       0.00000000       0.00000000       0.00000000       0.03359265
B        0.00000000       0.00000000       4.17757576       0.00000000       0.00000000      -0.03359265
2
Properties=species:S:1:pos:R:3:forces:R:3 energy=-1.450479563275115 pbc="F F F"
B        0.00000000       0.00000000       0.00000000       0.00000000       0.00000000       0.03015603
B        0.00000000       0.00000000       4.23636364       0.00000000       0.00000000      -0.03015603
2
Properties=species:S:1:pos:R:3:forces:R:3 energy=-1.4487577588078 pbc="F F F"
B        0.00000000       0.00000000       0.00000000       0.00000000       0.00000000       0.02873836
B        0.00000000       0.00000000       4.29515152       0.00000000       0.00000000      -0.02873836
2
Properties=species:S:1:pos:R:3:forces:R:3 energy=-1.4470750862949229 pbc="F F F"
B        0.00000000       0.00000000       0.00000000       0.00000000       0.00000000       0.02865895
B        0.00000000       0.00000000       4.35393939       0.00000000       0.00000000      -0.02865895
2
Properties=species:S:1:pos:R:3:forces:R:3 energy=-1.445372260329714 pbc="F F F"
B        0.00000000       0.00000000       0.00000000       0.00000000       0.00000000       0.02926425
B        0.00000000       0.00000000       4.41272727       0.00000000       0.00000000      -0.02926425
2
Properties=species:S:1:pos:R:3:forces:R:3 energy=-1.4436316372252898 pbc="F F F"
B        0.00000000       0.00000000       0.00000000       0.00000000       0.00000000       0.03000044
B        0.00000000       0.00000000       4.47151515       0.00000000       0.00000000      -0.03000044
2
Properties=species:S:1:pos:R:3:forces:R:3 energy=-1.4418552979283952 pbc="F F F"
B        0.00000000       0.00000000       0.00000000       0.00000000       0.00000000       0.03049908
B        0.00000000       0.00000000       4.53030303       0.00000000       0.00000000      -0.03049908
2
Properties=species:S:1:pos:R:3:forces:R:3 energy=-1.4400555912637503 pbc="F F F"
B        0.00000000       0.00000000       0.00000000       0.00000000       0.00000000       0.03062321
B        0.00000000       0.00000000       4.58909091       0.00000000       0.00000000      -0.03062321
2
Properties=species:S:1:pos:R:3:forces:R:3 energy=-1.4382561493808976 pbc="F F F"
B        0.00000000       0.00000000       0.00000000       0.00000000       0.00000000       0.03044231
B        0.00000000       0.00000000       4.64787879       0.00000000       0.00000000      -0.03044231
2
Properties=species:S:1:pos:R:3:forces:R:3 energy=-1.4364747358717072 pbc="F F F"
B        0.00000000       0.00000000       0.00000000       0.00000000       0.00000000       0.03014291
B        0.00000000       0.00000000       4.70666667       0.00000000       0.00000000      -0.03014291
2
Properties=species:S:1:pos:R:3:forces:R:3 energy=-1.4347109157164615 pbc="F F F"
B        0.00000000       0.00000000       0.00000000       0.00000000       0.00000000       0.02992224
B        0.00000000       0.00000000       4.76545455       0.00000000       0.00000000      -0.02992224
2
Properties=species:S:1:pos:R:3:forces:R:3 energy=-1.4329556248931736 pbc="F F F"
B        0.00000000       0.00000000       0.00000000       0.00000000       0.00000000       0.02990926
B        0.00000000       0.00000000       4.82424242       0.00000000       0.00000000      -0.02990926
2
Properties=species:S:1:pos:R:3:forces:R:3 energy=-1.4311911909684327 pbc="F F F"
B        0.00000000       0.00000000       0.00000000       0.00000000       0.00000000       0.03013637
B        0.00000000       0.00000000       4.88303030       0.00000000       0.00000000      -0.03013637
2
Properties=species:S:1:pos:R:3:forces:R:3 energy=-1.4294066053497088 pbc="F F F"
B        0.00000000       0.00000000       0.00000000       0.00000000       0.00000000       0.03055392
B        0.00000000       0.00000000       4.94181818       0.00000000       0.00000000      -0.03055392
2
Properties=species:S:1:pos:R:3:forces:R:3 energy=-1.4275956555344984 pbc="F F F"
B        0.00000000       0.00000000       0.00000000       0.00000000       0.00000000       0.03106440
B        0.00000000       0.00000000       5.00060606       0.00000000       0.00000000      -0.03106440
2
Properties=species:S:1:pos:R:3:forces:R:3 energy=-1.4257550268691792 pbc="F F F"
B        0.00000000       0.00000000       0.00000000       0.00000000       0.00000000       0.03154835
B        0.00000000       0.00000000       5.05939394       0.00000000       0.00000000      -0.03154835
2
Properties=species:S:1:pos:R:3:forces:R:3 energy=-1.4238900245949098 pbc="F F F"
B        0.00000000       0.00000000       0.00000000       0.00000000       0.00000000       0.03187487
B        0.00000000       0.00000000       5.11818182       0.00000000       0.00000000      -0.03187487
2
Properties=species:S:1:pos:R:3:forces:R:3 energy=-1.4220136387842666 pbc="F F F"
B        0.00000000       0.00000000       0.00000000       0.00000000       0.00000000       0.03189963
B        0.00000000       0.00000000       5.17696970       0.00000000       0.00000000      -0.03189963
2
Properties=species:S:1:pos:R:3:forces:R:3 energy=-1.42014940971995 pbc="F F F"
B        0.00000000       0.00000000       0.00000000       0.00000000       0.00000000       0.03146857
B        0.00000000       0.00000000       5.23575758       0.00000000       0.00000000      -0.03146857
2
Properties=species:S:1:pos:R:3:forces:R:3 energy=-1.418325702681064 pbc="F F F"
B        0.00000000       0.00000000       0.00000000       0.00000000       0.00000000       0.03043177
B        0.00000000       0.00000000       5.29454545       0.00000000       0.00000000      -0.03043177
2
Properties=species:S:1:pos:R:3:forces:R:3 energy=-1.41658239772054 pbc="F F F"
B        0.00000000       0.00000000       0.00000000       0.00000000       0.00000000       0.02868057
B        0.00000000       0.00000000       5.35333333       0.00000000       0.00000000      -0.02868057
2
Properties=species:S:1:pos:R:3:forces:R:3 energy=-1.4149689710311393 pbc="F F F"
B        0.00000000       0.00000000       0.00000000       0.00000000       0.00000000       0.02618104
B        0.00000000       0.00000000       5.41212121       0.00000000       0.00000000      -0.02618104
2
Properties=species:S:1:pos:R:3:forces:R:3 energy=-1.4135216111176143 pbc="F F F"
B        0.00000000       0.00000000       0.00000000       0.00000000       0.00000000       0.02300567
B        0.00000000       0.00000000       5.47090909       0.00000000       0.00000000      -0.02300567
2
Properties=species:S:1:pos:R:3:forces:R:3 energy=-1.4122727541539501 pbc="F F F"
B        0.00000000       0.00000000       0.00000000       0.00000000       0.00000000       0.01933550
B        0.00000000       0.00000000       5.52969697       0.00000000       0.00000000      -0.01933550
2
Properties=species:S:1:pos:R:3:forces:R:3 energy=-1.4112501307050263 pbc="F F F"
B        0.00000000       0.00000000       0.00000000       0.00000000       0.00000000       0.01544171
B        0.00000000       0.00000000       5.58848485       0.00000000       0.00000000      -0.01544171
2
Properties=species:S:1:pos:R:3:forces:R:3 energy=-1.4104595928572992 pbc="F F F"
B        0.00000000       0.00000000       0.00000000       0.00000000       0.00000000       0.01164403
B        0.00000000       0.00000000       5.64727273       0.00000000       0.00000000      -0.01164403
2
Properties=species:S:1:pos:R:3:forces:R:3 energy=-1.4098736683451052 pbc="F F F"
B        0.00000000       0.00000000       0.00000000       0.00000000       0.00000000       0.00824709
B        0.00000000       0.00000000       5.70606061       0.00000000       0.00000000      -0.00824709
2
Properties=species:S:1:pos:R:3:forces:R:3 energy=-1.409473523408516 pbc="F F F"
B        0.00000000       0.00000000       0.00000000       0.00000000       0.00000000       0.00549731
B        0.00000000       0.00000000       5.76484848       0.00000000       0.00000000      -0.00549731
2
Properties=species:S:1:pos:R:3:forces:R:3 energy=-1.4092117647432656 pbc="F F F"
B        0.00000000       0.00000000       0.00000000       0.00000000       0.00000000       0.00353257
B        0.00000000       0.00000000       5.82363636       0.00000000       0.00000000      -0.00353257
2
Properties=species:S:1:pos:R:3:forces:R:3 energy=-1.4090439026356472 pbc="F F F"
B        0.00000000       0.00000000       0.00000000       0.00000000       0.00000000       0.00235116
B        0.00000000       0.00000000       5.88242424       0.00000000       0.00000000      -0.00235116
2
Properties=species:S:1:pos:R:3:forces:R:3 energy=-1.4089235899165198 pbc="F F F"
B        0.00000000       0.00000000       0.00000000       0.00000000       0.00000000       0.00180595
B        0.00000000       0.00000000       5.94121212       0.00000000       0.00000000      -0.00180595
2
Properties=species:S:1:pos:R:3:forces:R:3 energy=-1.408822636054687 pbc="F F F"
B        0.00000000       0.00000000       0.00000000       0.00000000       0.00000000       0.00162845
B        0.00000000       0.00000000       6.00000000       0.00000000       0.00000000      -0.00162845
