2
Properties=species:S:1:pos:R:3:forces:R:3 energy=10819198.954253353 pbc="F F F"
Cd       0.00000000       0.00000000       0.00000000       0.00000000       0.00000000 -94200504.00000000
Cd       0.00000000       0.00000000       0.18000000       0.00000000       0.00000000 94200504.00000000
2
Properties=species:S:1:pos:R:3:forces:R:3 energy=5923115.454253354 pbc="F F F"
Cd       0.00000000       0.00000000       0.00000000       0.00000000       0.00000000 -70087720.00000000
Cd       0.00000000       0.00000000       0.23878788       0.00000000       0.00000000 70087720.00000000
2
Properties=species:S:1:pos:R:3:forces:R:3 energy=2675354.704253357 pbc="F F F"
Cd       0.00000000       0.00000000       0.00000000       0.00000000       0.00000000 -40798192.00000000
Cd       0.00000000       0.00000000       0.29757576       0.00000000       0.00000000 40798192.00000000
2
Properties=species:S:1:pos:R:3:forces:R:3 energy=984339.1417533599 pbc="F F F"
Cd       0.00000000       0.00000000       0.00000000       0.00000000       0.00000000 -18495210.00000000
Cd       0.00000000       0.00000000       0.35636364       0.00000000       0.00000000 18495210.00000000
2
Properties=species:S:1:pos:R:3:forces:R:3 energy=292665.01675336633 pbc="F F F"
Cd       0.00000000       0.00000000       0.00000000       0.00000000       0.00000000 -6599181.00000000
Cd       0.00000000       0.00000000       0.41515152       0.00000000       0.00000000 6599181.00000000
2
Properties=species:S:1:pos:R:3:forces:R:3 energy=70388.40737838532 pbc="F F F"
Cd       0.00000000       0.00000000       0.00000000       0.00000000       0.00000000 -1742510.00000000
Cd       0.00000000       0.00000000       0.47393939       0.00000000       0.00000000 1742510.00000000
2
Properties=species:S:1:pos:R:3:forces:R:3 energy=14948.989409667005 pbc="F F F"
Cd       0.00000000       0.00000000       0.00000000       0.00000000       0.00000000 -433161.59375000
Cd       0.00000000       0.00000000       0.53272727       0.00000000       0.00000000  433161.59375000
2
Properties=species:S:1:pos:R:3:forces:R:3 energy=2150.3248589364403 pbc="F F F"
Cd       0.00000000       0.00000000       0.00000000       0.00000000       0.00000000  -82404.61718750
Cd       0.00000000       0.00000000       0.59151515       0.00000000       0.00000000   82404.61718750
2
Properties=species:S:1:pos:R:3:forces:R:3 energy=449.7751764079517 pbc="F F F"
Cd       0.00000000       0.00000000       0.00000000       0.00000000       0.00000000   -4994.99755859
Cd       0.00000000       0.00000000       0.65030303       0.00000000       0.00000000    4994.99755859
2
Properties=species:S:1:pos:R:3:forces:R:3 energy=330.9930415375702 pbc="F F F"
Cd       0.00000000       0.00000000       0.00000000       0.00000000       0.00000000    -961.48474121
Cd       0.00000000       0.00000000       0.70909091       0.00000000       0.00000000     961.48474121
2
Properties=species:S:1:pos:R:3:forces:R:3 energy=276.01782202008394 pbc="F F F"
Cd       0.00000000       0.00000000       0.00000000       0.00000000       0.00000000    -746.94396973
Cd       0.00000000       0.00000000       0.76787879       0.00000000       0.00000000     746.94396973
2
Properties=species:S:1:pos:R:3:forces:R:3 energy=238.7068329506477 pbc="F F F"
Cd       0.00000000       0.00000000       0.00000000       0.00000000       0.00000000    -458.90939331
Cd       0.00000000       0.00000000       0.82666667       0.00000000       0.00000000     458.90939331
2
Properties=species:S:1:pos:R:3:forces:R:3 energy=203.49806263585404 pbc="F F F"
Cd       0.00000000       0.00000000       0.00000000       0.00000000       0.00000000    -599.37292480
Cd       0.00000000       0.00000000       0.88545455       0.00000000       0.00000000     599.37292480
2
Properties=species:S:1:pos:R:3:forces:R:3 energy=171.49023550112597 pbc="F F F"
Cd       0.00000000       0.00000000       0.00000000       0.00000000       0.00000000    -534.35333252
Cd       0.00000000       0.00000000       0.94424242       0.00000000       0.00000000     534.35333252
2
Properties=species:S:1:pos:R:3:forces:R:3 energy=136.13675124901604 pbc="F F F"
Cd       0.00000000       0.00000000       0.00000000       0.00000000       0.00000000    -629.78582764
Cd       0.00000000       0.00000000       1.00303030       0.00000000       0.00000000     629.78582764
2
Properties=species:S:1:pos:R:3:forces:R:3 energy=104.5592606386816 pbc="F F F"
Cd       0.00000000       0.00000000       0.00000000       0.00000000       0.00000000    -471.77227783
Cd       0.00000000       0.00000000       1.06181818       0.00000000       0.00000000     471.77227783
2
Properties=species:S:1:pos:R:3:forces:R:3 energy=91.85707558743485 pbc="F F F"
Cd       0.00000000       0.00000000       0.00000000       0.00000000       0.00000000    -212.62712097
Cd       0.00000000       0.00000000       1.12060606       0.00000000       0.00000000     212.62712097
2
Properties=species:S:1:pos:R:3:forces:R:3 energy=78.74743556068985 pbc="F F F"
Cd       0.00000000       0.00000000       0.00000000       0.00000000       0.00000000    -191.71618652
Cd       0.00000000       0.00000000       1.17939394       0.00000000       0.00000000     191.71618652
2
Properties=species:S:1:pos:R:3:forces:R:3 energy=68.26356669200744 pbc="F F F"
Cd       0.00000000       0.00000000       0.00000000       0.00000000       0.00000000    -179.48951721
Cd       0.00000000       0.00000000       1.23818182       0.00000000       0.00000000     179.48951721
2
Properties=species:S:1:pos:R:3:forces:R:3 energy=57.46246069158456 pbc="F F F"
Cd       0.00000000       0.00000000       0.00000000       0.00000000       0.00000000    -175.21174622
Cd       0.00000000       0.00000000       1.29696970       0.00000000       0.00000000     175.21174622
2
Properties=species:S:1:pos:R:3:forces:R:3 energy=48.23767240531233 pbc="F F F"
Cd       0.00000000       0.00000000       0.00000000       0.00000000       0.00000000    -144.61222839
Cd       0.00000000       0.00000000       1.35575758       0.00000000       0.00000000     144.61222839
2
Properties=species:S:1:pos:R:3:forces:R:3 energy=39.9025565027763 pbc="F F F"
Cd       0.00000000       0.00000000       0.00000000       0.00000000       0.00000000    -135.42341614
Cd       0.00000000       0.00000000       1.41454545       0.00000000       0.00000000     135.42341614
2
Properties=species:S:1:pos:R:3:forces:R:3 energy=32.60901825603499 pbc="F F F"
Cd       0.00000000       0.00000000       0.00000000       0.00000000       0.00000000    -113.88182068
Cd       0.00000000       0.00000000       1.47333333       0.00000000       0.00000000     113.88182068
2
Properties=species:S:1:pos:R:3:forces:R:3 energy=26.323532448427418 pbc="F F F"
Cd       0.00000000       0.00000000       0.00000000       0.00000000       0.00000000     -99.38225555
Cd       0.00000000       0.00000000       1.53212121       0.00000000       0.00000000      99.38225555
2
Properties=species:S:1:pos:R:3:forces:R:3 energy=21.019074120104495 pbc="F F F"
Cd       0.00000000       0.00000000       0.00000000       0.00000000       0.00000000     -82.02581024
Cd       0.00000000       0.00000000       1.59090909       0.00000000       0.00000000      82.02581024
2
Properties=species:S:1:pos:R:3:forces:R:3 energy=16.576478170484034 pbc="F F F"
Cd       0.00000000       0.00000000       0.00000000       0.00000000       0.00000000     -68.41967773
Cd       0.00000000       0.00000000       1.64969697       0.00000000       0.00000000      68.41967773
2
Properties=species:S:1:pos:R:3:forces:R:3 energy=12.921360258695412 pbc="F F F"
Cd       0.00000000       0.00000000       0.00000000       0.00000000       0.00000000     -56.25400543
Cd       0.00000000       0.00000000       1.70848485       0.00000000       0.00000000      56.25400543
2
Properties=species:S:1:pos:R:3:forces:R:3 energy=9.99109487036406 pbc="F F F"
Cd       0.00000000       0.00000000       0.00000000       0.00000000       0.00000000     -43.90950012
Cd       0.00000000       0.00000000       1.76727273       0.00000000       0.00000000      43.90950012
2
Properties=species:S:1:pos:R:3:forces:R:3 energy=7.655994618533272 pbc="F F F"
Cd       0.00000000       0.00000000       0.00000000       0.00000000       0.00000000     -35.92145920
Cd       0.00000000       0.00000000       1.82606061       0.00000000       0.00000000      35.92145920
2
Properties=species:S:1:pos:R:3:forces:R:3 energy=5.762933173063581 pbc="F F F"
Cd       0.00000000       0.00000000       0.00000000       0.00000000       0.00000000     -28.58814430
Cd       0.00000000       0.00000000       1.88484848       0.00000000       0.00000000      28.58814430
2
Properties=species:S:1:pos:R:3:forces:R:3 energy=4.287279789316352 pbc="F F F"
Cd       0.00000000       0.00000000       0.00000000       0.00000000       0.00000000     -21.70125389
Cd       0.00000000       0.00000000       1.94363636       0.00000000       0.00000000      21.70125389
2
Properties=species:S:1:pos:R:3:forces:R:3 energy=3.1826692949127255 pbc="F F F"
Cd       0.00000000       0.00000000       0.00000000       0.00000000       0.00000000     -16.17458916
Cd       0.00000000       0.00000000       2.00242424       0.00000000       0.00000000      16.17458916
2
Properties=species:S:1:pos:R:3:forces:R:3 energy=2.354729103746854 pbc="F F F"
Cd       0.00000000       0.00000000       0.00000000       0.00000000       0.00000000     -12.20238972
Cd       0.00000000       0.00000000       2.06121212       0.00000000       0.00000000      12.20238972
2
Properties=species:S:1:pos:R:3:forces:R:3 energy=1.7308293369069219 pbc="F F F"
Cd       0.00000000       0.00000000       0.00000000       0.00000000       0.00000000      -9.14867878
Cd       0.00000000       0.00000000       2.12000000       0.00000000       0.00000000       9.14867878
2
Properties=species:S:1:pos:R:3:forces:R:3 energy=1.261142541070113 pbc="F F F"
Cd       0.00000000       0.00000000       0.00000000       0.00000000       0.00000000      -6.97788477
Cd       0.00000000       0.00000000       2.17878788       0.00000000       0.00000000       6.97788477
2
Properties=species:S:1:pos:R:3:forces:R:3 energy=0.8996793877081785 pbc="F F F"
Cd       0.00000000       0.00000000       0.00000000       0.00000000       0.00000000      -5.37773323
Cd       0.00000000       0.00000000       2.23757576       0.00000000       0.00000000       5.37773323
2
Properties=species:S:1:pos:R:3:forces:R:3 energy=0.620434810743741 pbc="F F F"
Cd       0.00000000       0.00000000       0.00000000       0.00000000       0.00000000      -4.19490147
Cd       0.00000000       0.00000000       2.29636364       0.00000000       0.00000000       4.19490147
2
Properties=species:S:1:pos:R:3:forces:R:3 energy=0.40058490614690784 pbc="F F F"
Cd       0.00000000       0.00000000       0.00000000       0.00000000       0.00000000      -3.31658220
Cd       0.00000000       0.00000000       2.35515152       0.00000000       0.00000000       3.31658220
2
Properties=species:S:1:pos:R:3:forces:R:3 energy=0.22709920544929244 pbc="F F F"
Cd       0.00000000       0.00000000       0.00000000       0.00000000       0.00000000      -2.61083961
Cd       0.00000000       0.00000000       2.41393939       0.00000000       0.00000000       2.61083961
2
Properties=species:S:1:pos:R:3:forces:R:3 energy=0.09114942075474428 pbc="F F F"
Cd       0.00000000       0.00000000       0.00000000       0.00000000       0.00000000      -2.03396058
Cd       0.00000000       0.00000000       2.47272727       0.00000000       0.00000000       2.03396058
2
Properties=species:S:1:pos:R:3:forces:R:3 energy=-0.014241818473466124 pbc="F F F"
Cd       0.00000000       0.00000000       0.00000000       0.00000000       0.00000000      -1.56762493
Cd       0.00000000       0.00000000       2.53151515       0.00000000       0.00000000       1.56762493
2
Properties=species:S:1:pos:R:3:forces:R:3 energy=-0.0948237321170261 pbc="F F F"
Cd       0.00000000       0.00000000       0.00000000       0.00000000       0.00000000      -1.18708909
Cd       0.00000000       0.00000000       2.59030303       0.00000000       0.00000000       1.18708909
2
Properties=species:S:1:pos:R:3:forces:R:3 energy=-0.15530658140929476 pbc="F F F"
Cd       0.00000000       0.00000000       0.00000000       0.00000000       0.00000000      -0.88206142
Cd       0.00000000       0.00000000       2.64909091       0.00000000       0.00000000       0.88206142
2
Properties=species:S:1:pos:R:3:forces:R:3 energy=-0.19963912963659242 pbc="F F F"
Cd       0.00000000       0.00000000       0.00000000       0.00000000       0.00000000      -0.63350356
Cd       0.00000000       0.00000000       2.70787879       0.00000000       0.00000000       0.63350356
2
Properties=species:S:1:pos:R:3:forces:R:3 energy=-0.2305549871281582 pbc="F F F"
Cd       0.00000000       0.00000000       0.00000000       0.00000000       0.00000000      -0.42501840
Cd       0.00000000       0.00000000       2.76666667       0.00000000       0.00000000       0.42501840
2
Properties=species:S:1:pos:R:3:forces:R:3 energy=-0.25051158568651655 pbc="F F F"
Cd       0.00000000       0.00000000       0.00000000       0.00000000       0.00000000      -0.26213014
Cd       0.00000000       0.00000000       2.82545455       0.00000000       0.00000000       0.26213014
2
Properties=species:S:1:pos:R:3:forces:R:3 energy=-0.2622810416124784 pbc="F F F"
Cd       0.00000000       0.00000000       0.00000000       0.00000000       0.00000000      -0.14486799
Cd       0.00000000       0.00000000       2.88424242       0.00000000       0.00000000       0.14486799
2
Properties=species:S:1:pos:R:3:forces:R:3 energy=-0.26815039440681193 pbc="F F F"
Cd       0.00000000       0.00000000       0.00000000       0.00000000       0.00000000      -0.05864425
Cd       0.00000000       0.00000000       2.94303030       0.00000000       0.00000000       0.05864425
2
Properties=species:S:1:pos:R:3:forces:R:3 energy=-0.26953388316414834 pbc="F F F"
Cd       0.00000000       0.00000000       0.00000000       0.00000000       0.00000000       0.00887033
Cd       0.00000000       0.00000000       3.00181818       0.00000000       0.00000000      -0.00887033
2
Properties=species:S:1:pos:R:3:forces:R:3 energy=-0.26745138581132344 pbc="F F F"
Cd       0.00000000       0.00000000       0.00000000       0.00000000       0.00000000       0.05867540
Cd       0.00000000       0.00000000       3.06060606       0.00000000       0.00000000      -0.05867540
2
Properties=species:S:1:pos:R:3:forces:R:3 energy=-0.26305400528436457 pbc="F F F"
Cd       0.00000000       0.00000000       0.00000000       0.00000000       0.00000000       0.08738843
Cd       0.00000000       0.00000000       3.11939394       0.00000000       0.00000000      -0.08738843
2
Properties=species:S:1:pos:R:3:forces:R:3 energy=-0.25753165530058336 pbc="F F F"
Cd       0.00000000       0.00000000       0.00000000       0.00000000       0.00000000       0.09820663
Cd       0.00000000       0.00000000       3.17818182       0.00000000       0.00000000      -0.09820663
2
Properties=species:S:1:pos:R:3:forces:R:3 energy=-0.25168178185015355 pbc="F F F"
Cd       0.00000000       0.00000000       0.00000000       0.00000000       0.00000000       0.09998396
Cd       0.00000000       0.00000000       3.23696970       0.00000000       0.00000000      -0.09998396
2
Properties=species:S:1:pos:R:3:forces:R:3 energy=-0.2458257977513396 pbc="F F F"
Cd       0.00000000       0.00000000       0.00000000       0.00000000       0.00000000       0.09905398
Cd       0.00000000       0.00000000       3.29575758       0.00000000       0.00000000      -0.09905398
2
Properties=species:S:1:pos:R:3:forces:R:3 energy=-0.2400523041181763 pbc="F F F"
Cd       0.00000000       0.00000000       0.00000000       0.00000000       0.00000000       0.09720747
Cd       0.00000000       0.00000000       3.35454545       0.00000000       0.00000000      -0.09720747
2
Properties=species:S:1:pos:R:3:forces:R:3 energy=-0.23441534168628553 pbc="F F F"
Cd       0.00000000       0.00000000       0.00000000       0.00000000       0.00000000       0.09440903
Cd       0.00000000       0.00000000       3.41333333       0.00000000       0.00000000      -0.09440903
2
Properties=species:S:1:pos:R:3:forces:R:3 energy=-0.22896790825673147 pbc="F F F"
Cd       0.00000000       0.00000000       0.00000000       0.00000000       0.00000000       0.09083492
Cd       0.00000000       0.00000000       3.47212121       0.00000000       0.00000000      -0.09083492
2
Properties=species:S:1:pos:R:3:forces:R:3 energy=-0.22373705917054987 pbc="F F F"
Cd       0.00000000       0.00000000       0.00000000       0.00000000       0.00000000       0.08717530
Cd       0.00000000       0.00000000       3.53090909       0.00000000       0.00000000      -0.08717530
2
Properties=species:S:1:pos:R:3:forces:R:3 energy=-0.2187070049485435 pbc="F F F"
Cd       0.00000000       0.00000000       0.00000000       0.00000000       0.00000000       0.08406174
Cd       0.00000000       0.00000000       3.58969697       0.00000000       0.00000000      -0.08406174
2
Properties=species:S:1:pos:R:3:forces:R:3 energy=-0.2138395217584066 pbc="F F F"
Cd       0.00000000       0.00000000       0.00000000       0.00000000       0.00000000       0.08164075
Cd       0.00000000       0.00000000       3.64848485       0.00000000       0.00000000      -0.08164075
2
Properties=species:S:1:pos:R:3:forces:R:3 energy=-0.20909955957325718 pbc="F F F"
Cd       0.00000000       0.00000000       0.00000000       0.00000000       0.00000000       0.07966130
Cd       0.00000000       0.00000000       3.70727273       0.00000000       0.00000000      -0.07966130
2
Properties=species:S:1:pos:R:3:forces:R:3 energy=-0.20447121421656692 pbc="F F F"
Cd       0.00000000       0.00000000       0.00000000       0.00000000       0.00000000       0.07778327
Cd       0.00000000       0.00000000       3.76606061       0.00000000       0.00000000      -0.07778327
2
Properties=species:S:1:pos:R:3:forces:R:3 energy=-0.19995682637286907 pbc="F F F"
Cd       0.00000000       0.00000000       0.00000000       0.00000000       0.00000000       0.07576565
Cd       0.00000000       0.00000000       3.82484848       0.00000000       0.00000000      -0.07576565
2
Properties=species:S:1:pos:R:3:forces:R:3 energy=-0.19556879332872731 pbc="F F F"
Cd       0.00000000       0.00000000       0.00000000       0.00000000       0.00000000       0.07346948
Cd       0.00000000       0.00000000       3.88363636       0.00000000       0.00000000      -0.07346948
2
Properties=species:S:1:pos:R:3:forces:R:3 energy=-0.19132607472139093 pbc="F F F"
Cd       0.00000000       0.00000000       0.00000000       0.00000000       0.00000000       0.07078987
Cd       0.00000000       0.00000000       3.94242424       0.00000000       0.00000000      -0.07078987
2
Properties=species:S:1:pos:R:3:forces:R:3 energy=-0.18725483093488268 pbc="F F F"
Cd       0.00000000       0.00000000       0.00000000       0.00000000       0.00000000       0.06764001
Cd       0.00000000       0.00000000       4.00121212       0.00000000       0.00000000      -0.06764001
2
Properties=species:S:1:pos:R:3:forces:R:3 energy=-0.18338274623552828 pbc="F F F"
Cd       0.00000000       0.00000000       0.00000000       0.00000000       0.00000000       0.06401272
Cd       0.00000000       0.00000000       4.06000000       0.00000000       0.00000000      -0.06401272
2
Properties=species:S:1:pos:R:3:forces:R:3 energy=-0.17973498949535244 pbc="F F F"
Cd       0.00000000       0.00000000       0.00000000       0.00000000       0.00000000       0.06004279
Cd       0.00000000       0.00000000       4.11878788       0.00000000       0.00000000      -0.06004279
2
Properties=species:S:1:pos:R:3:forces:R:3 energy=-0.1763247531406123 pbc="F F F"
Cd       0.00000000       0.00000000       0.00000000       0.00000000       0.00000000       0.05598505
Cd       0.00000000       0.00000000       4.17757576       0.00000000       0.00000000      -0.05598505
2
Properties=species:S:1:pos:R:3:forces:R:3 energy=-0.17314884874372832 pbc="F F F"
Cd       0.00000000       0.00000000       0.00000000       0.00000000       0.00000000       0.05212305
Cd       0.00000000       0.00000000       4.23636364       0.00000000       0.00000000      -0.05212305
2
Properties=species:S:1:pos:R:3:forces:R:3 energy=-0.17018813517515813 pbc="F F F"
Cd       0.00000000       0.00000000       0.00000000       0.00000000       0.00000000       0.04867875
Cd       0.00000000       0.00000000       4.29515152       0.00000000       0.00000000      -0.04867875
2
Properties=species:S:1:pos:R:3:forces:R:3 energy=-0.1674147175101498 pbc="F F F"
Cd       0.00000000       0.00000000       0.00000000       0.00000000       0.00000000       0.04577111
Cd       0.00000000       0.00000000       4.35393939       0.00000000       0.00000000      -0.04577111
2
Properties=species:S:1:pos:R:3:forces:R:3 energy=-0.16479587859939288 pbc="F F F"
Cd       0.00000000       0.00000000       0.00000000       0.00000000       0.00000000       0.04341894
Cd       0.00000000       0.00000000       4.41272727       0.00000000       0.00000000      -0.04341894
2
Properties=species:S:1:pos:R:3:forces:R:3 energy=-0.1623001682462519 pbc="F F F"
Cd       0.00000000       0.00000000       0.00000000       0.00000000       0.00000000       0.04156233
Cd       0.00000000       0.00000000       4.47151515       0.00000000       0.00000000      -0.04156233
2
Properties=species:S:1:pos:R:3:forces:R:3 energy=-0.15990157002817434 pbc="F F F"
Cd       0.00000000       0.00000000       0.00000000       0.00000000       0.00000000       0.04008600
Cd       0.00000000       0.00000000       4.53030303       0.00000000       0.00000000      -0.04008600
2
Properties=species:S:1:pos:R:3:forces:R:3 energy=-0.15758219559301814 pbc="F F F"
Cd       0.00000000       0.00000000       0.00000000       0.00000000       0.00000000       0.03884427
Cd       0.00000000       0.00000000       4.58909091       0.00000000       0.00000000      -0.03884427
2
Properties=species:S:1:pos:R:3:forces:R:3 energy=-0.15533269180412257 pbc="F F F"
Cd       0.00000000       0.00000000       0.00000000       0.00000000       0.00000000       0.03769173
Cd       0.00000000       0.00000000       4.64787879       0.00000000       0.00000000      -0.03769173
2
Properties=species:S:1:pos:R:3:forces:R:3 energy=-0.15315122887724114 pbc="F F F"
Cd       0.00000000       0.00000000       0.00000000       0.00000000       0.00000000       0.03651423
Cd       0.00000000       0.00000000       4.70666667       0.00000000       0.00000000      -0.03651423
2
Properties=species:S:1:pos:R:3:forces:R:3 energy=-0.15104139896283977 pbc="F F F"
Cd       0.00000000       0.00000000       0.00000000       0.00000000       0.00000000       0.03525387
Cd       0.00000000       0.00000000       4.76545455       0.00000000       0.00000000      -0.03525387
2
Properties=species:S:1:pos:R:3:forces:R:3 energy=-0.1490076196688287 pbc="F F F"
Cd       0.00000000       0.00000000       0.00000000       0.00000000       0.00000000       0.03391706
Cd       0.00000000       0.00000000       4.82424242       0.00000000       0.00000000      -0.03391706
2
Properties=species:S:1:pos:R:3:forces:R:3 energy=-0.14705381800664427 pbc="F F F"
Cd       0.00000000       0.00000000       0.00000000       0.00000000       0.00000000       0.03256300
Cd       0.00000000       0.00000000       4.88303030       0.00000000       0.00000000      -0.03256300
2
Properties=species:S:1:pos:R:3:forces:R:3 energy=-0.14517765766019608 pbc="F F F"
Cd       0.00000000       0.00000000       0.00000000       0.00000000       0.00000000       0.03127396
Cd       0.00000000       0.00000000       4.94181818       0.00000000       0.00000000      -0.03127396
2
Properties=species:S:1:pos:R:3:forces:R:3 energy=-0.14337406416344012 pbc="F F F"
Cd       0.00000000       0.00000000       0.00000000       0.00000000       0.00000000       0.03012136
Cd       0.00000000       0.00000000       5.00060606       0.00000000       0.00000000      -0.03012136
2
Properties=species:S:1:pos:R:3:forces:R:3 energy=-0.14163278011000802 pbc="F F F"
Cd       0.00000000       0.00000000       0.00000000       0.00000000       0.00000000       0.02913634
Cd       0.00000000       0.00000000       5.05939394       0.00000000       0.00000000      -0.02913634
2
Properties=species:S:1:pos:R:3:forces:R:3 energy=-0.13994523811031295 pbc="F F F"
Cd       0.00000000       0.00000000       0.00000000       0.00000000       0.00000000       0.02829609
Cd       0.00000000       0.00000000       5.11818182       0.00000000       0.00000000      -0.02829609
2
Properties=species:S:1:pos:R:3:forces:R:3 energy=-0.13830465265839204 pbc="F F F"
Cd       0.00000000       0.00000000       0.00000000       0.00000000       0.00000000       0.02752744
Cd       0.00000000       0.00000000       5.17696970       0.00000000       0.00000000      -0.02752744
2
Properties=species:S:1:pos:R:3:forces:R:3 energy=-0.13670968510961298 pbc="F F F"
Cd       0.00000000       0.00000000       0.00000000       0.00000000       0.00000000       0.02672463
Cd       0.00000000       0.00000000       5.23575758       0.00000000       0.00000000      -0.02672463
2
Properties=species:S:1:pos:R:3:forces:R:3 energy=-0.13516523696401295 pbc="F F F"
Cd       0.00000000       0.00000000       0.00000000       0.00000000       0.00000000       0.02577570
Cd       0.00000000       0.00000000       5.29454545       0.00000000       0.00000000      -0.02577570
2
Properties=species:S:1:pos:R:3:forces:R:3 energy=-0.13368343797069962 pbc="F F F"
Cd       0.00000000       0.00000000       0.00000000       0.00000000       0.00000000       0.02458783
Cd       0.00000000       0.00000000       5.35333333       0.00000000       0.00000000      -0.02458783
2
Properties=species:S:1:pos:R:3:forces:R:3 energy=-0.1322800635135205 pbc="F F F"
Cd       0.00000000       0.00000000       0.00000000       0.00000000       0.00000000       0.02310996
Cd       0.00000000       0.00000000       5.41212121       0.00000000       0.00000000      -0.02310996
2
Properties=species:S:1:pos:R:3:forces:R:3 energy=-0.13097195635620262 pbc="F F F"
Cd       0.00000000       0.00000000       0.00000000       0.00000000       0.00000000       0.02134535
Cd       0.00000000       0.00000000       5.47090909       0.00000000       0.00000000      -0.02134535
2
Properties=species:S:1:pos:R:3:forces:R:3 energy=-0.12977495690287238 pbc="F F F"
Cd       0.00000000       0.00000000       0.00000000       0.00000000       0.00000000       0.01935380
Cd       0.00000000       0.00000000       5.52969697       0.00000000       0.00000000      -0.01935380
2
Properties=species:S:1:pos:R:3:forces:R:3 energy=-0.12869893283784906 pbc="F F F"
Cd       0.00000000       0.00000000       0.00000000       0.00000000       0.00000000       0.01724187
Cd       0.00000000       0.00000000       5.58848485       0.00000000       0.00000000      -0.01724187
2
Properties=species:S:1:pos:R:3:forces:R:3 energy=-0.12774731495977518 pbc="F F F"
Cd       0.00000000       0.00000000       0.00000000       0.00000000       0.00000000       0.01514529
Cd       0.00000000       0.00000000       5.64727273       0.00000000       0.00000000      -0.01514529
2
Properties=species:S:1:pos:R:3:forces:R:3 energy=-0.12691535655960548 pbc="F F F"
Cd       0.00000000       0.00000000       0.00000000       0.00000000       0.00000000       0.01320162
Cd       0.00000000       0.00000000       5.70606061       0.00000000       0.00000000      -0.01320162
2
Properties=species:S:1:pos:R:3:forces:R:3 energy=-0.12618957380411389 pbc="F F F"
Cd       0.00000000       0.00000000       0.00000000       0.00000000       0.00000000       0.01152567
Cd       0.00000000       0.00000000       5.76484848       0.00000000       0.00000000      -0.01152567
2
Properties=species:S:1:pos:R:3:forces:R:3 energy=-0.12555360124628112 pbc="F F F"
Cd       0.00000000       0.00000000       0.00000000       0.00000000       0.00000000       0.01018794
Cd       0.00000000       0.00000000       5.82363636       0.00000000       0.00000000      -0.01018794
2
Properties=species:S:1:pos:R:3:forces:R:3 energy=-0.12498510347114392 pbc="F F F"
Cd       0.00000000       0.00000000       0.00000000       0.00000000       0.00000000       0.00919621
Cd       0.00000000       0.00000000       5.88242424       0.00000000       0.00000000      -0.00919621
2
Properties=species:S:1:pos:R:3:forces:R:3 energy=-0.12446606827638435 pbc="F F F"
Cd       0.00000000       0.00000000       0.00000000       0.00000000       0.00000000       0.00849410
Cd       0.00000000       0.00000000       5.94121212       0.00000000       0.00000000      -0.00849410
2
Properties=species:S:1:pos:R:3:forces:R:3 energy=-0.12398291162641964 pbc="F F F"
Cd       0.00000000       0.00000000       0.00000000       0.00000000       0.00000000       0.00797041
Cd       0.00000000       0.00000000       6.00000000       0.00000000       0.00000000      -0.00797041
