2
Properties=species:S:1:pos:R:3:forces:R:3 energy=5880446.468243264 pbc="F F F"
Co       0.00000000       0.00000000       0.00000000       0.00000000       0.00000000 -62663128.00000000
Co       0.00000000       0.00000000       0.18000000       0.00000000       0.00000000 62663128.00000000
2
Properties=species:S:1:pos:R:3:forces:R:3 energy=2786163.968243264 pbc="F F F"
Co       0.00000000       0.00000000       0.00000000       0.00000000       0.00000000 -41364284.00000000
Co       0.00000000       0.00000000       0.23878788       0.00000000       0.00000000 41364284.00000000
2
Properties=species:S:1:pos:R:3:forces:R:3 energy=1001422.8432432673 pbc="F F F"
Co       0.00000000       0.00000000       0.00000000       0.00000000       0.00000000 -20213324.00000000
Co       0.00000000       0.00000000       0.29757576       0.00000000       0.00000000 20213324.00000000
2
Properties=species:S:1:pos:R:3:forces:R:3 energy=248816.5619932672 pbc="F F F"
Co       0.00000000       0.00000000       0.00000000       0.00000000       0.00000000 -6865336.00000000
Co       0.00000000       0.00000000       0.35636364       0.00000000       0.00000000 6865336.00000000
2
Properties=species:S:1:pos:R:3:forces:R:3 energy=33720.73777452355 pbc="F F F"
Co       0.00000000       0.00000000       0.00000000       0.00000000       0.00000000 -1515639.75000000
Co       0.00000000       0.00000000       0.41515152       0.00000000       0.00000000 1515639.75000000
2
Properties=species:S:1:pos:R:3:forces:R:3 energy=-4250.547381713776 pbc="F F F"
Co       0.00000000       0.00000000       0.00000000       0.00000000       0.00000000 -128829.00000000
Co       0.00000000       0.00000000       0.47393939       0.00000000       0.00000000  128829.00000000
2
Properties=species:S:1:pos:R:3:forces:R:3 energy=-3964.264422704059 pbc="F F F"
Co       0.00000000       0.00000000       0.00000000       0.00000000       0.00000000   52614.42968750
Co       0.00000000       0.00000000       0.53272727       0.00000000       0.00000000  -52614.42968750
2
Properties=species:S:1:pos:R:3:forces:R:3 energy=-1332.3574402441702 pbc="F F F"
Co       0.00000000       0.00000000       0.00000000       0.00000000       0.00000000   27094.17773438
Co       0.00000000       0.00000000       0.59151515       0.00000000       0.00000000  -27094.17773438
2
Properties=species:S:1:pos:R:3:forces:R:3 energy=-361.78401488150945 pbc="F F F"
Co       0.00000000       0.00000000       0.00000000       0.00000000       0.00000000    7926.48046875
Co       0.00000000       0.00000000       0.65030303       0.00000000       0.00000000   -7926.48046875
2
Properties=species:S:1:pos:R:3:forces:R:3 energy=-92.86397083165879 pbc="F F F"
Co       0.00000000       0.00000000       0.00000000       0.00000000       0.00000000    2522.62084961
Co       0.00000000       0.00000000       0.70909091       0.00000000       0.00000000   -2522.62084961
2
Properties=species:S:1:pos:R:3:forces:R:3 energy=-23.58220950066627 pbc="F F F"
Co       0.00000000       0.00000000       0.00000000       0.00000000       0.00000000     313.41036987
Co       0.00000000       0.00000000       0.76787879       0.00000000       0.00000000    -313.41036987
2
Properties=species:S:1:pos:R:3:forces:R:3 energy=-14.312942180865255 pbc="F F F"
Co       0.00000000       0.00000000       0.00000000       0.00000000       0.00000000      69.82398987
Co       0.00000000       0.00000000       0.82666667       0.00000000       0.00000000     -69.82398987
2
Properties=species:S:1:pos:R:3:forces:R:3 energy=-11.62625723028099 pbc="F F F"
Co       0.00000000       0.00000000       0.00000000       0.00000000       0.00000000      40.51485443
Co       0.00000000       0.00000000       0.88545455       0.00000000       0.00000000     -40.51485443
2
Properties=species:S:1:pos:R:3:forces:R:3 energy=-9.043870735094142 pbc="F F F"
Co       0.00000000       0.00000000       0.00000000       0.00000000       0.00000000      45.85310364
Co       0.00000000       0.00000000       0.94424242       0.00000000       0.00000000     -45.85310364
2
Properties=species:S:1:pos:R:3:forces:R:3 energy=-6.433101281173708 pbc="F F F"
Co       0.00000000       0.00000000       0.00000000       0.00000000       0.00000000      44.94077682
Co       0.00000000       0.00000000       1.00303030       0.00000000       0.00000000     -44.94077682
2
Properties=species:S:1:pos:R:3:forces:R:3 energy=-3.7063676633180282 pbc="F F F"
Co       0.00000000       0.00000000       0.00000000       0.00000000       0.00000000      45.78899384
Co       0.00000000       0.00000000       1.06181818       0.00000000       0.00000000     -45.78899384
2
Properties=species:S:1:pos:R:3:forces:R:3 energy=-1.2907590324956113 pbc="F F F"
Co       0.00000000       0.00000000       0.00000000       0.00000000       0.00000000      31.46366882
Co       0.00000000       0.00000000       1.12060606       0.00000000       0.00000000     -31.46366882
2
Properties=species:S:1:pos:R:3:forces:R:3 energy=-0.1882384544268697 pbc="F F F"
Co       0.00000000       0.00000000       0.00000000       0.00000000       0.00000000       6.96943903
Co       0.00000000       0.00000000       1.17939394       0.00000000       0.00000000      -6.96943903
2
Properties=species:S:1:pos:R:3:forces:R:3 energy=-0.3633472756544829 pbc="F F F"
Co       0.00000000       0.00000000       0.00000000       0.00000000       0.00000000     -14.70009708
Co       0.00000000       0.00000000       1.23818182       0.00000000       0.00000000      14.70009708
2
Properties=species:S:1:pos:R:3:forces:R:3 energy=-1.314991527199402 pbc="F F F"
Co       0.00000000       0.00000000       0.00000000       0.00000000       0.00000000     -16.15038490
Co       0.00000000       0.00000000       1.29696970       0.00000000       0.00000000      16.15038490
2
Properties=species:S:1:pos:R:3:forces:R:3 energy=-2.212748699927451 pbc="F F F"
Co       0.00000000       0.00000000       0.00000000       0.00000000       0.00000000     -14.44184589
Co       0.00000000       0.00000000       1.35575758       0.00000000       0.00000000      14.44184589
2
Properties=species:S:1:pos:R:3:forces:R:3 energy=-3.036243412187903 pbc="F F F"
Co       0.00000000       0.00000000       0.00000000       0.00000000       0.00000000     -13.32368565
Co       0.00000000       0.00000000       1.41454545       0.00000000       0.00000000      13.32368565
2
Properties=species:S:1:pos:R:3:forces:R:3 energy=-3.735615539825342 pbc="F F F"
Co       0.00000000       0.00000000       0.00000000       0.00000000       0.00000000     -10.28914928
Co       0.00000000       0.00000000       1.47333333       0.00000000       0.00000000      10.28914928
2
Properties=species:S:1:pos:R:3:forces:R:3 energy=-4.265138249695923 pbc="F F F"
Co       0.00000000       0.00000000       0.00000000       0.00000000       0.00000000      -8.04092693
Co       0.00000000       0.00000000       1.53212121       0.00000000       0.00000000       8.04092693
2
Properties=species:S:1:pos:R:3:forces:R:3 energy=-4.699818074302329 pbc="F F F"
Co       0.00000000       0.00000000       0.00000000       0.00000000       0.00000000      -6.88389635
Co       0.00000000       0.00000000       1.59090909       0.00000000       0.00000000       6.88389635
2
Properties=species:S:1:pos:R:3:forces:R:3 energy=-5.089892620103041 pbc="F F F"
Co       0.00000000       0.00000000       0.00000000       0.00000000       0.00000000      -6.41031504
Co       0.00000000       0.00000000       1.64969697       0.00000000       0.00000000       6.41031504
2
Properties=species:S:1:pos:R:3:forces:R:3 energy=-5.457722786837473 pbc="F F F"
Co       0.00000000       0.00000000       0.00000000       0.00000000       0.00000000      -6.08878899
Co       0.00000000       0.00000000       1.70848485       0.00000000       0.00000000       6.08878899
2
Properties=species:S:1:pos:R:3:forces:R:3 energy=-5.797925112684196 pbc="F F F"
Co       0.00000000       0.00000000       0.00000000       0.00000000       0.00000000      -5.48971081
Co       0.00000000       0.00000000       1.76727273       0.00000000       0.00000000       5.48971081
2
Properties=species:S:1:pos:R:3:forces:R:3 energy=-6.116472468591082 pbc="F F F"
Co       0.00000000       0.00000000       0.00000000       0.00000000       0.00000000      -5.27577353
Co       0.00000000       0.00000000       1.82606061       0.00000000       0.00000000       5.27577353
2
Properties=species:S:1:pos:R:3:forces:R:3 energy=-6.397660108776449 pbc="F F F"
Co       0.00000000       0.00000000       0.00000000       0.00000000       0.00000000      -4.33714962
Co       0.00000000       0.00000000       1.88484848       0.00000000       0.00000000       4.33714962
2
Properties=species:S:1:pos:R:3:forces:R:3 energy=-6.6255142883299865 pbc="F F F"
Co       0.00000000       0.00000000       0.00000000       0.00000000       0.00000000      -3.32583833
Co       0.00000000       0.00000000       1.94363636       0.00000000       0.00000000       3.32583833
2
Properties=species:S:1:pos:R:3:forces:R:3 energy=-6.7865866326986986 pbc="F F F"
Co       0.00000000       0.00000000       0.00000000       0.00000000       0.00000000      -2.17049122
Co       0.00000000       0.00000000       2.00242424       0.00000000       0.00000000       2.17049122
2
Properties=species:S:1:pos:R:3:forces:R:3 energy=-6.879977809346406 pbc="F F F"
Co       0.00000000       0.00000000       0.00000000       0.00000000       0.00000000      -0.99971431
Co       0.00000000       0.00000000       2.06121212       0.00000000       0.00000000       0.99971431
2
Properties=species:S:1:pos:R:3:forces:R:3 energy=-6.908473448550978 pbc="F F F"
Co       0.00000000       0.00000000       0.00000000       0.00000000       0.00000000      -0.02567798
Co       0.00000000       0.00000000       2.12000000       0.00000000       0.00000000       0.02567798
2
Properties=species:S:1:pos:R:3:forces:R:3 energy=-6.889393857592485 pbc="F F F"
Co       0.00000000       0.00000000       0.00000000       0.00000000       0.00000000       0.62129933
Co       0.00000000       0.00000000       2.17878788       0.00000000       0.00000000      -0.62129933
2
Properties=species:S:1:pos:R:3:forces:R:3 energy=-6.839400491195528 pbc="F F F"
Co       0.00000000       0.00000000       0.00000000       0.00000000       0.00000000       1.05584443
Co       0.00000000       0.00000000       2.23757576       0.00000000       0.00000000      -1.05584443
2
Properties=species:S:1:pos:R:3:forces:R:3 energy=-6.770089110848061 pbc="F F F"
Co       0.00000000       0.00000000       0.00000000       0.00000000       0.00000000       1.25276494
Co       0.00000000       0.00000000       2.29636364       0.00000000       0.00000000      -1.25276494
2
Properties=species:S:1:pos:R:3:forces:R:3 energy=-6.696333743611918 pbc="F F F"
Co       0.00000000       0.00000000       0.00000000       0.00000000       0.00000000       1.23842955
Co       0.00000000       0.00000000       2.35515152       0.00000000       0.00000000      -1.23842955
2
Properties=species:S:1:pos:R:3:forces:R:3 energy=-6.62479223121932 pbc="F F F"
Co       0.00000000       0.00000000       0.00000000       0.00000000       0.00000000       1.20215917
Co       0.00000000       0.00000000       2.41393939       0.00000000       0.00000000      -1.20215917
2
Properties=species:S:1:pos:R:3:forces:R:3 energy=-6.5544847203610725 pbc="F F F"
Co       0.00000000       0.00000000       0.00000000       0.00000000       0.00000000       1.18868828
Co       0.00000000       0.00000000       2.47272727       0.00000000       0.00000000      -1.18868828
2
Properties=species:S:1:pos:R:3:forces:R:3 energy=-6.485108173604823 pbc="F F F"
Co       0.00000000       0.00000000       0.00000000       0.00000000       0.00000000       1.17400348
Co       0.00000000       0.00000000       2.53151515       0.00000000       0.00000000      -1.17400348
2
Properties=species:S:1:pos:R:3:forces:R:3 energy=-6.416381367035963 pbc="F F F"
Co       0.00000000       0.00000000       0.00000000       0.00000000       0.00000000       1.15963078
Co       0.00000000       0.00000000       2.59030303       0.00000000       0.00000000      -1.15963078
2
Properties=species:S:1:pos:R:3:forces:R:3 energy=-6.349583106715106 pbc="F F F"
Co       0.00000000       0.00000000       0.00000000       0.00000000       0.00000000       1.10681593
Co       0.00000000       0.00000000       2.64909091       0.00000000       0.00000000      -1.10681593
2
Properties=species:S:1:pos:R:3:forces:R:3 energy=-6.286637980945388 pbc="F F F"
Co       0.00000000       0.00000000       0.00000000       0.00000000       0.00000000       1.03352785
Co       0.00000000       0.00000000       2.70787879       0.00000000       0.00000000      -1.03352785
2
Properties=species:S:1:pos:R:3:forces:R:3 energy=-6.228023105765148 pbc="F F F"
Co       0.00000000       0.00000000       0.00000000       0.00000000       0.00000000       0.96241051
Co       0.00000000       0.00000000       2.76666667       0.00000000       0.00000000      -0.96241051
2
Properties=species:S:1:pos:R:3:forces:R:3 energy=-6.173093764349072 pbc="F F F"
Co       0.00000000       0.00000000       0.00000000       0.00000000       0.00000000       0.91050321
Co       0.00000000       0.00000000       2.82545455       0.00000000       0.00000000      -0.91050321
2
Properties=species:S:1:pos:R:3:forces:R:3 energy=-6.120522098717455 pbc="F F F"
Co       0.00000000       0.00000000       0.00000000       0.00000000       0.00000000       0.88079113
Co       0.00000000       0.00000000       2.88424242       0.00000000       0.00000000      -0.88079113
2
Properties=species:S:1:pos:R:3:forces:R:3 energy=-6.069336521260542 pbc="F F F"
Co       0.00000000       0.00000000       0.00000000       0.00000000       0.00000000       0.86147171
Co       0.00000000       0.00000000       2.94303030       0.00000000       0.00000000      -0.86147171
2
Properties=species:S:1:pos:R:3:forces:R:3 energy=-6.019164029295486 pbc="F F F"
Co       0.00000000       0.00000000       0.00000000       0.00000000       0.00000000       0.84595150
Co       0.00000000       0.00000000       3.00181818       0.00000000       0.00000000      -0.84595150
2
Properties=species:S:1:pos:R:3:forces:R:3 energy=-5.969831402876838 pbc="F F F"
Co       0.00000000       0.00000000       0.00000000       0.00000000       0.00000000       0.83229142
Co       0.00000000       0.00000000       3.06060606       0.00000000       0.00000000      -0.83229142
2
Properties=species:S:1:pos:R:3:forces:R:3 energy=-5.921377472202399 pbc="F F F"
Co       0.00000000       0.00000000       0.00000000       0.00000000       0.00000000       0.81512511
Co       0.00000000       0.00000000       3.11939394       0.00000000       0.00000000      -0.81512511
2
Properties=species:S:1:pos:R:3:forces:R:3 energy=-5.8741344887128575 pbc="F F F"
Co       0.00000000       0.00000000       0.00000000       0.00000000       0.00000000       0.79098475
Co       0.00000000       0.00000000       3.17818182       0.00000000       0.00000000      -0.79098475
2
Properties=species:S:1:pos:R:3:forces:R:3 energy=-5.828492032013837 pbc="F F F"
Co       0.00000000       0.00000000       0.00000000       0.00000000       0.00000000       0.76090932
Co       0.00000000       0.00000000       3.23696970       0.00000000       0.00000000      -0.76090932
2
Properties=species:S:1:pos:R:3:forces:R:3 energy=-5.7847945469076825 pbc="F F F"
Co       0.00000000       0.00000000       0.00000000       0.00000000       0.00000000       0.72445178
Co       0.00000000       0.00000000       3.29575758       0.00000000       0.00000000      -0.72445178
2
Properties=species:S:1:pos:R:3:forces:R:3 energy=-5.743480757241699 pbc="F F F"
Co       0.00000000       0.00000000       0.00000000       0.00000000       0.00000000       0.67956042
Co       0.00000000       0.00000000       3.35454545       0.00000000       0.00000000      -0.67956042
2
Properties=species:S:1:pos:R:3:forces:R:3 energy=-5.705056186751013 pbc="F F F"
Co       0.00000000       0.00000000       0.00000000       0.00000000       0.00000000       0.62656027
Co       0.00000000       0.00000000       3.41333333       0.00000000       0.00000000      -0.62656027
2
Properties=species:S:1:pos:R:3:forces:R:3 energy=-5.669904764031573 pbc="F F F"
Co       0.00000000       0.00000000       0.00000000       0.00000000       0.00000000       0.56886858
Co       0.00000000       0.00000000       3.47212121       0.00000000       0.00000000      -0.56886858
2
Properties=species:S:1:pos:R:3:forces:R:3 energy=-5.638177401036238 pbc="F F F"
Co       0.00000000       0.00000000       0.00000000       0.00000000       0.00000000       0.51077020
Co       0.00000000       0.00000000       3.53090909       0.00000000       0.00000000      -0.51077020
2
Properties=species:S:1:pos:R:3:forces:R:3 energy=-5.60979831867072 pbc="F F F"
Co       0.00000000       0.00000000       0.00000000       0.00000000       0.00000000       0.45526421
Co       0.00000000       0.00000000       3.58969697       0.00000000       0.00000000      -0.45526421
2
Properties=species:S:1:pos:R:3:forces:R:3 energy=-5.584574223495878 pbc="F F F"
Co       0.00000000       0.00000000       0.00000000       0.00000000       0.00000000       0.40350676
Co       0.00000000       0.00000000       3.64848485       0.00000000       0.00000000      -0.40350676
2
Properties=species:S:1:pos:R:3:forces:R:3 energy=-5.562281727318779 pbc="F F F"
Co       0.00000000       0.00000000       0.00000000       0.00000000       0.00000000       0.35554376
Co       0.00000000       0.00000000       3.70727273       0.00000000       0.00000000      -0.35554376
2
Properties=species:S:1:pos:R:3:forces:R:3 energy=-5.542699746776877 pbc="F F F"
Co       0.00000000       0.00000000       0.00000000       0.00000000       0.00000000       0.31122890
Co       0.00000000       0.00000000       3.76606061       0.00000000       0.00000000      -0.31122890
2
Properties=species:S:1:pos:R:3:forces:R:3 energy=-5.525614875259638 pbc="F F F"
Co       0.00000000       0.00000000       0.00000000       0.00000000       0.00000000       0.27064106
Co       0.00000000       0.00000000       3.82484848       0.00000000       0.00000000      -0.27064106
2
Properties=species:S:1:pos:R:3:forces:R:3 energy=-5.510801648851375 pbc="F F F"
Co       0.00000000       0.00000000       0.00000000       0.00000000       0.00000000       0.23400117
Co       0.00000000       0.00000000       3.88363636       0.00000000       0.00000000      -0.23400117
2
Properties=species:S:1:pos:R:3:forces:R:3 energy=-5.498023200566438 pbc="F F F"
Co       0.00000000       0.00000000       0.00000000       0.00000000       0.00000000       0.20141727
Co       0.00000000       0.00000000       3.94242424       0.00000000       0.00000000      -0.20141727
2
Properties=species:S:1:pos:R:3:forces:R:3 energy=-5.487043963890095 pbc="F F F"
Co       0.00000000       0.00000000       0.00000000       0.00000000       0.00000000       0.17272189
Co       0.00000000       0.00000000       4.00121212       0.00000000       0.00000000      -0.17272189
2
Properties=species:S:1:pos:R:3:forces:R:3 energy=-5.477645777535957 pbc="F F F"
Co       0.00000000       0.00000000       0.00000000       0.00000000       0.00000000       0.14752026
Co       0.00000000       0.00000000       4.06000000       0.00000000       0.00000000      -0.14752026
2
Properties=species:S:1:pos:R:3:forces:R:3 energy=-5.469639316866486 pbc="F F F"
Co       0.00000000       0.00000000       0.00000000       0.00000000       0.00000000       0.12537086
Co       0.00000000       0.00000000       4.11878788       0.00000000       0.00000000      -0.12537086
2
Properties=species:S:1:pos:R:3:forces:R:3 energy=-5.462852873212582 pbc="F F F"
Co       0.00000000       0.00000000       0.00000000       0.00000000       0.00000000       0.10593931
Co       0.00000000       0.00000000       4.17757576       0.00000000       0.00000000      -0.10593931
2
Properties=species:S:1:pos:R:3:forces:R:3 energy=-5.457134197865779 pbc="F F F"
Co       0.00000000       0.00000000       0.00000000       0.00000000       0.00000000       0.08904217
Co       0.00000000       0.00000000       4.23636364       0.00000000       0.00000000      -0.08904217
2
Properties=species:S:1:pos:R:3:forces:R:3 energy=-5.452334494019312 pbc="F F F"
Co       0.00000000       0.00000000       0.00000000       0.00000000       0.00000000       0.07458079
Co       0.00000000       0.00000000       4.29515152       0.00000000       0.00000000      -0.07458079
2
Properties=species:S:1:pos:R:3:forces:R:3 energy=-5.448318913521248 pbc="F F F"
Co       0.00000000       0.00000000       0.00000000       0.00000000       0.00000000       0.06244168
Co       0.00000000       0.00000000       4.35393939       0.00000000       0.00000000      -0.06244168
2
Properties=species:S:1:pos:R:3:forces:R:3 energy=-5.444952310444373 pbc="F F F"
Co       0.00000000       0.00000000       0.00000000       0.00000000       0.00000000       0.05242821
Co       0.00000000       0.00000000       4.41272727       0.00000000       0.00000000      -0.05242821
2
Properties=species:S:1:pos:R:3:forces:R:3 energy=-5.44211935377803 pbc="F F F"
Co       0.00000000       0.00000000       0.00000000       0.00000000       0.00000000       0.04425664
Co       0.00000000       0.00000000       4.47151515       0.00000000       0.00000000      -0.04425664
2
Properties=species:S:1:pos:R:3:forces:R:3 energy=-5.439718955933703 pbc="F F F"
Co       0.00000000       0.00000000       0.00000000       0.00000000       0.00000000       0.03759840
Co       0.00000000       0.00000000       4.53030303       0.00000000       0.00000000      -0.03759840
2
Properties=species:S:1:pos:R:3:forces:R:3 energy=-5.4376752083214335 pbc="F F F"
Co       0.00000000       0.00000000       0.00000000       0.00000000       0.00000000       0.03214017
Co       0.00000000       0.00000000       4.58909091       0.00000000       0.00000000      -0.03214017
2
Properties=species:S:1:pos:R:3:forces:R:3 energy=-5.435922059204311 pbc="F F F"
Co       0.00000000       0.00000000       0.00000000       0.00000000       0.00000000       0.02762873
Co       0.00000000       0.00000000       4.64787879       0.00000000       0.00000000      -0.02762873
2
Properties=species:S:1:pos:R:3:forces:R:3 energy=-5.434410772030616 pbc="F F F"
Co       0.00000000       0.00000000       0.00000000       0.00000000       0.00000000       0.02388785
Co       0.00000000       0.00000000       4.70666667       0.00000000       0.00000000      -0.02388785
2
Properties=species:S:1:pos:R:3:forces:R:3 energy=-5.433099460358906 pbc="F F F"
Co       0.00000000       0.00000000       0.00000000       0.00000000       0.00000000       0.02081081
Co       0.00000000       0.00000000       4.76545455       0.00000000       0.00000000      -0.02081081
2
Properties=species:S:1:pos:R:3:forces:R:3 energy=-5.431951657346551 pbc="F F F"
Co       0.00000000       0.00000000       0.00000000       0.00000000       0.00000000       0.01834100
Co       0.00000000       0.00000000       4.82424242       0.00000000       0.00000000      -0.01834100
2
Properties=species:S:1:pos:R:3:forces:R:3 energy=-5.430932491548996 pbc="F F F"
Co       0.00000000       0.00000000       0.00000000       0.00000000       0.00000000       0.01645204
Co       0.00000000       0.00000000       4.88303030       0.00000000       0.00000000      -0.01645204
2
Properties=species:S:1:pos:R:3:forces:R:3 energy=-5.430006773235483 pbc="F F F"
Co       0.00000000       0.00000000       0.00000000       0.00000000       0.00000000       0.01513074
Co       0.00000000       0.00000000       4.94181818       0.00000000       0.00000000      -0.01513074
2
Properties=species:S:1:pos:R:3:forces:R:3 energy=-5.4291423892699635 pbc="F F F"
Co       0.00000000       0.00000000       0.00000000       0.00000000       0.00000000       0.01436198
Co       0.00000000       0.00000000       5.00060606       0.00000000       0.00000000      -0.01436198
2
Properties=species:S:1:pos:R:3:forces:R:3 energy=-5.428307562465381 pbc="F F F"
Co       0.00000000       0.00000000       0.00000000       0.00000000       0.00000000       0.01411341
Co       0.00000000       0.00000000       5.05939394       0.00000000       0.00000000      -0.01411341
2
Properties=species:S:1:pos:R:3:forces:R:3 energy=-5.427473194587786 pbc="F F F"
Co       0.00000000       0.00000000       0.00000000       0.00000000       0.00000000       0.01431975
Co       0.00000000       0.00000000       5.11818182       0.00000000       0.00000000      -0.01431975
2
Properties=species:S:1:pos:R:3:forces:R:3 energy=-5.426616334097139 pbc="F F F"
Co       0.00000000       0.00000000       0.00000000       0.00000000       0.00000000       0.01487306
Co       0.00000000       0.00000000       5.17696970       0.00000000       0.00000000      -0.01487306
2
Properties=species:S:1:pos:R:3:forces:R:3 energy=-5.425720738515677 pbc="F F F"
Co       0.00000000       0.00000000       0.00000000       0.00000000       0.00000000       0.01562278
Co       0.00000000       0.00000000       5.23575758       0.00000000       0.00000000      -0.01562278
2
Properties=species:S:1:pos:R:3:forces:R:3 energy=-5.424780212288015 pbc="F F F"
Co       0.00000000       0.00000000       0.00000000       0.00000000       0.00000000       0.01639071
Co       0.00000000       0.00000000       5.29454545       0.00000000       0.00000000      -0.01639071
2
Properties=species:S:1:pos:R:3:forces:R:3 energy=-5.423797800410562 pbc="F F F"
Co       0.00000000       0.00000000       0.00000000       0.00000000       0.00000000       0.01699766
Co       0.00000000       0.00000000       5.35333333       0.00000000       0.00000000      -0.01699766
2
Properties=species:S:1:pos:R:3:forces:R:3 energy=-5.42278818687251 pbc="F F F"
Co       0.00000000       0.00000000       0.00000000       0.00000000       0.00000000       0.01729610
Co       0.00000000       0.00000000       5.41212121       0.00000000       0.00000000      -0.01729610
2
Properties=species:S:1:pos:R:3:forces:R:3 energy=-5.421772018543358 pbc="F F F"
Co       0.00000000       0.00000000       0.00000000       0.00000000       0.00000000       0.01719734
Co       0.00000000       0.00000000       5.47090909       0.00000000       0.00000000      -0.01719734
2
Properties=species:S:1:pos:R:3:forces:R:3 energy=-5.420773131265072 pbc="F F F"
Co       0.00000000       0.00000000       0.00000000       0.00000000       0.00000000       0.01668648
Co       0.00000000       0.00000000       5.52969697       0.00000000       0.00000000      -0.01668648
2
Properties=species:S:1:pos:R:3:forces:R:3 energy=-5.419816682101229 pbc="F F F"
Co       0.00000000       0.00000000       0.00000000       0.00000000       0.00000000       0.01581974
Co       0.00000000       0.00000000       5.58848485       0.00000000       0.00000000      -0.01581974
2
Properties=species:S:1:pos:R:3:forces:R:3 energy=-5.418919628432961 pbc="F F F"
Co       0.00000000       0.00000000       0.00000000       0.00000000       0.00000000       0.01470812
Co       0.00000000       0.00000000       5.64727273       0.00000000       0.00000000      -0.01470812
2
Properties=species:S:1:pos:R:3:forces:R:3 energy=-5.418089348132638 pbc="F F F"
Co       0.00000000       0.00000000       0.00000000       0.00000000       0.00000000       0.01348833
Co       0.00000000       0.00000000       5.70606061       0.00000000       0.00000000      -0.01348833
2
Properties=species:S:1:pos:R:3:forces:R:3 energy=-5.417331785393334 pbc="F F F"
Co       0.00000000       0.00000000       0.00000000       0.00000000       0.00000000       0.01229350
Co       0.00000000       0.00000000       5.76484848       0.00000000       0.00000000      -0.01229350
2
Properties=species:S:1:pos:R:3:forces:R:3 energy=-5.416641443484148 pbc="F F F"
Co       0.00000000       0.00000000       0.00000000       0.00000000       0.00000000       0.01122624
Co       0.00000000       0.00000000       5.82363636       0.00000000       0.00000000      -0.01122624
2
Properties=species:S:1:pos:R:3:forces:R:3 energy=-5.416008556314511 pbc="F F F"
Co       0.00000000       0.00000000       0.00000000       0.00000000       0.00000000       0.01033899
Co       0.00000000       0.00000000       5.88242424       0.00000000       0.00000000      -0.01033899
2
Properties=species:S:1:pos:R:3:forces:R:3 energy=-5.415422941937269 pbc="F F F"
Co       0.00000000       0.00000000       0.00000000       0.00000000       0.00000000       0.00962753
Co       0.00000000       0.00000000       5.94121212       0.00000000       0.00000000      -0.00962753
2
Properties=species:S:1:pos:R:3:forces:R:3 energy=-5.414875414845186 pbc="F F F"
Co       0.00000000       0.00000000       0.00000000       0.00000000       0.00000000       0.00903741
Co       0.00000000       0.00000000       6.00000000       0.00000000       0.00000000      -0.00903741
