2
Properties=species:S:1:pos:R:3:forces:R:3 energy=-100440.15300796014 pbc="F F F"
F        0.00000000       0.00000000       0.00000000       0.00000000       0.00000000  977081.93750000
F        0.00000000       0.00000000       0.18000000       0.00000000       0.00000000 -977081.93750000
2
Properties=species:S:1:pos:R:3:forces:R:3 energy=-50181.50066420975 pbc="F F F"
F        0.00000000       0.00000000       0.00000000       0.00000000       0.00000000  706612.12500000
F        0.00000000       0.00000000       0.23878788       0.00000000       0.00000000 -706612.12500000
2
Properties=species:S:1:pos:R:3:forces:R:3 energy=-18658.028007958164 pbc="F F F"
F        0.00000000       0.00000000       0.00000000       0.00000000       0.00000000  370873.46875000
F        0.00000000       0.00000000       0.29757576       0.00000000       0.00000000 -370873.46875000
2
Properties=species:S:1:pos:R:3:forces:R:3 energy=-4598.641777485849 pbc="F F F"
F        0.00000000       0.00000000       0.00000000       0.00000000       0.00000000  124441.42968750
F        0.00000000       0.00000000       0.35636364       0.00000000       0.00000000 -124441.42968750
2
Properties=species:S:1:pos:R:3:forces:R:3 energy=-325.2954945185496 pbc="F F F"
F        0.00000000       0.00000000       0.00000000       0.00000000       0.00000000   29371.98437500
F        0.00000000       0.00000000       0.41515152       0.00000000       0.00000000  -29371.98437500
2
Properties=species:S:1:pos:R:3:forces:R:3 energy=246.24034839398524 pbc="F F F"
F        0.00000000       0.00000000       0.00000000       0.00000000       0.00000000    -136.94833374
F        0.00000000       0.00000000       0.47393939       0.00000000       0.00000000     136.94833374
2
Properties=species:S:1:pos:R:3:forces:R:3 energy=158.74712332721526 pbc="F F F"
F        0.00000000       0.00000000       0.00000000       0.00000000       0.00000000   -1393.92150879
F        0.00000000       0.00000000       0.53272727       0.00000000       0.00000000    1393.92150879
2
Properties=species:S:1:pos:R:3:forces:R:3 energy=91.90127529796813 pbc="F F F"
F        0.00000000       0.00000000       0.00000000       0.00000000       0.00000000    -844.81896973
F        0.00000000       0.00000000       0.59151515       0.00000000       0.00000000     844.81896973
2
Properties=species:S:1:pos:R:3:forces:R:3 energy=55.46413396900207 pbc="F F F"
F        0.00000000       0.00000000       0.00000000       0.00000000       0.00000000    -421.16290283
F        0.00000000       0.00000000       0.65030303       0.00000000       0.00000000     421.16290283
2
Properties=species:S:1:pos:R:3:forces:R:3 energy=36.74511708076559 pbc="F F F"
F        0.00000000       0.00000000       0.00000000       0.00000000       0.00000000    -235.04051208
F        0.00000000       0.00000000       0.70909091       0.00000000       0.00000000     235.04051208
2
Properties=species:S:1:pos:R:3:forces:R:3 energy=25.594110595589207 pbc="F F F"
F        0.00000000       0.00000000       0.00000000       0.00000000       0.00000000    -156.02470398
F        0.00000000       0.00000000       0.76787879       0.00000000       0.00000000     156.02470398
2
Properties=species:S:1:pos:R:3:forces:R:3 energy=17.829245034355438 pbc="F F F"
F        0.00000000       0.00000000       0.00000000       0.00000000       0.00000000    -111.80007935
F        0.00000000       0.00000000       0.82666667       0.00000000       0.00000000     111.80007935
2
Properties=species:S:1:pos:R:3:forces:R:3 energy=11.981762802515789 pbc="F F F"
F        0.00000000       0.00000000       0.00000000       0.00000000       0.00000000     -88.00407410
F        0.00000000       0.00000000       0.88545455       0.00000000       0.00000000      88.00407410
2
Properties=species:S:1:pos:R:3:forces:R:3 energy=7.391391345757197 pbc="F F F"
F        0.00000000       0.00000000       0.00000000       0.00000000       0.00000000     -67.85200500
F        0.00000000       0.00000000       0.94424242       0.00000000       0.00000000      67.85200500
2
Properties=species:S:1:pos:R:3:forces:R:3 energy=3.8849434593014154 pbc="F F F"
F        0.00000000       0.00000000       0.00000000       0.00000000       0.00000000     -52.46977615
F        0.00000000       0.00000000       1.00303030       0.00000000       0.00000000      52.46977615
2
Properties=species:S:1:pos:R:3:forces:R:3 energy=1.1781937394698785 pbc="F F F"
F        0.00000000       0.00000000       0.00000000       0.00000000       0.00000000     -39.62859344
F        0.00000000       0.00000000       1.06181818       0.00000000       0.00000000      39.62859344
2
Properties=species:S:1:pos:R:3:forces:R:3 energy=-0.8024823640536942 pbc="F F F"
F        0.00000000       0.00000000       0.00000000       0.00000000       0.00000000     -29.00311089
F        0.00000000       0.00000000       1.12060606       0.00000000       0.00000000      29.00311089
2
Properties=species:S:1:pos:R:3:forces:R:3 energy=-2.208382380946428 pbc="F F F"
F        0.00000000       0.00000000       0.00000000       0.00000000       0.00000000     -19.09226990
F        0.00000000       0.00000000       1.17939394       0.00000000       0.00000000      19.09226990
2
Properties=species:S:1:pos:R:3:forces:R:3 energy=-3.0876902517783233 pbc="F F F"
F        0.00000000       0.00000000       0.00000000       0.00000000       0.00000000     -11.25086880
F        0.00000000       0.00000000       1.23818182       0.00000000       0.00000000      11.25086880
2
Properties=species:S:1:pos:R:3:forces:R:3 energy=-3.6231821401004356 pbc="F F F"
F        0.00000000       0.00000000       0.00000000       0.00000000       0.00000000      -6.74189043
F        0.00000000       0.00000000       1.29696970       0.00000000       0.00000000       6.74189043
2
Properties=species:S:1:pos:R:3:forces:R:3 energy=-3.889131225752917 pbc="F F F"
F        0.00000000       0.00000000       0.00000000       0.00000000       0.00000000      -2.77231836
F        0.00000000       0.00000000       1.35575758       0.00000000       0.00000000       2.77231836
2
Properties=species:S:1:pos:R:3:forces:R:3 energy=-3.9777650015039394 pbc="F F F"
F        0.00000000       0.00000000       0.00000000       0.00000000       0.00000000      -0.54250795
F        0.00000000       0.00000000       1.41454545       0.00000000       0.00000000       0.54250795
2
Properties=species:S:1:pos:R:3:forces:R:3 energy=-3.9854823537527415 pbc="F F F"
F        0.00000000       0.00000000       0.00000000       0.00000000       0.00000000       0.35830504
F        0.00000000       0.00000000       1.47333333       0.00000000       0.00000000      -0.35830504
2
Properties=species:S:1:pos:R:3:forces:R:3 energy=-3.93091263154619 pbc="F F F"
F        0.00000000       0.00000000       0.00000000       0.00000000       0.00000000       1.17099333
F        0.00000000       0.00000000       1.53212121       0.00000000       0.00000000      -1.17099333
2
Properties=species:S:1:pos:R:3:forces:R:3 energy=-3.8787381536996475 pbc="F F F"
F        0.00000000       0.00000000       0.00000000       0.00000000       0.00000000       0.54690802
F        0.00000000       0.00000000       1.59090909       0.00000000       0.00000000      -0.54690802
2
Properties=species:S:1:pos:R:3:forces:R:3 energy=-3.856346778122042 pbc="F F F"
F        0.00000000       0.00000000       0.00000000       0.00000000       0.00000000       0.19372375
F        0.00000000       0.00000000       1.64969697       0.00000000       0.00000000      -0.19372375
2
Properties=species:S:1:pos:R:3:forces:R:3 energy=-3.8656437555593093 pbc="F F F"
F        0.00000000       0.00000000       0.00000000       0.00000000       0.00000000      -0.52465385
F        0.00000000       0.00000000       1.70848485       0.00000000       0.00000000       0.52465385
2
Properties=species:S:1:pos:R:3:forces:R:3 energy=-3.9106612090376567 pbc="F F F"
F        0.00000000       0.00000000       0.00000000       0.00000000       0.00000000      -0.90920395
F        0.00000000       0.00000000       1.76727273       0.00000000       0.00000000       0.90920395
2
Properties=species:S:1:pos:R:3:forces:R:3 energy=-3.965472251143897 pbc="F F F"
F        0.00000000       0.00000000       0.00000000       0.00000000       0.00000000      -0.96454555
F        0.00000000       0.00000000       1.82606061       0.00000000       0.00000000       0.96454555
2
Properties=species:S:1:pos:R:3:forces:R:3 energy=-4.013824595432192 pbc="F F F"
F        0.00000000       0.00000000       0.00000000       0.00000000       0.00000000      -0.58734894
F        0.00000000       0.00000000       1.88484848       0.00000000       0.00000000       0.58734894
2
Properties=species:S:1:pos:R:3:forces:R:3 energy=-4.034539252845872 pbc="F F F"
F        0.00000000       0.00000000       0.00000000       0.00000000       0.00000000      -0.16283871
F        0.00000000       0.00000000       1.94363636       0.00000000       0.00000000       0.16283871
2
Properties=species:S:1:pos:R:3:forces:R:3 energy=-4.0333715203321985 pbc="F F F"
F        0.00000000       0.00000000       0.00000000       0.00000000       0.00000000       0.21453430
F        0.00000000       0.00000000       2.00242424       0.00000000       0.00000000      -0.21453430
2
Properties=species:S:1:pos:R:3:forces:R:3 energy=-4.007515656751826 pbc="F F F"
F        0.00000000       0.00000000       0.00000000       0.00000000       0.00000000       0.68219537
F        0.00000000       0.00000000       2.06121212       0.00000000       0.00000000      -0.68219537
2
Properties=species:S:1:pos:R:3:forces:R:3 energy=-3.9561078815247814 pbc="F F F"
F        0.00000000       0.00000000       0.00000000       0.00000000       0.00000000       1.01118362
F        0.00000000       0.00000000       2.12000000       0.00000000       0.00000000      -1.01118362
2
Properties=species:S:1:pos:R:3:forces:R:3 energy=-3.89481591168672 pbc="F F F"
F        0.00000000       0.00000000       0.00000000       0.00000000       0.00000000       1.03325033
F        0.00000000       0.00000000       2.17878788       0.00000000       0.00000000      -1.03325033
2
Properties=species:S:1:pos:R:3:forces:R:3 energy=-3.838358834168773 pbc="F F F"
F        0.00000000       0.00000000       0.00000000       0.00000000       0.00000000       0.86761403
F        0.00000000       0.00000000       2.23757576       0.00000000       0.00000000      -0.86761403
2
Properties=species:S:1:pos:R:3:forces:R:3 energy=-3.793313251205277 pbc="F F F"
F        0.00000000       0.00000000       0.00000000       0.00000000       0.00000000       0.66159195
F        0.00000000       0.00000000       2.29636364       0.00000000       0.00000000      -0.66159195
2
Properties=species:S:1:pos:R:3:forces:R:3 energy=-3.762490934905825 pbc="F F F"
F        0.00000000       0.00000000       0.00000000       0.00000000       0.00000000       0.36712027
F        0.00000000       0.00000000       2.35515152       0.00000000       0.00000000      -0.36712027
2
Properties=species:S:1:pos:R:3:forces:R:3 energy=-3.750181797529531 pbc="F F F"
F        0.00000000       0.00000000       0.00000000       0.00000000       0.00000000       0.07191009
F        0.00000000       0.00000000       2.41393939       0.00000000       0.00000000      -0.07191009
2
Properties=species:S:1:pos:R:3:forces:R:3 energy=-3.751129981131595 pbc="F F F"
F        0.00000000       0.00000000       0.00000000       0.00000000       0.00000000      -0.08487818
F        0.00000000       0.00000000       2.47272727       0.00000000       0.00000000       0.08487818
2
Properties=species:S:1:pos:R:3:forces:R:3 energy=-3.759252383801888 pbc="F F F"
F        0.00000000       0.00000000       0.00000000       0.00000000       0.00000000      -0.19191116
F        0.00000000       0.00000000       2.53151515       0.00000000       0.00000000       0.19191116
2
Properties=species:S:1:pos:R:3:forces:R:3 energy=-3.7735696330985937 pbc="F F F"
F        0.00000000       0.00000000       0.00000000       0.00000000       0.00000000      -0.29008865
F        0.00000000       0.00000000       2.59030303       0.00000000       0.00000000       0.29008865
2
Properties=species:S:1:pos:R:3:forces:R:3 energy=-3.7925765418067265 pbc="F F F"
F        0.00000000       0.00000000       0.00000000       0.00000000       0.00000000      -0.35033527
F        0.00000000       0.00000000       2.64909091       0.00000000       0.00000000       0.35033527
2
Properties=species:S:1:pos:R:3:forces:R:3 energy=-3.8142140117677097 pbc="F F F"
F        0.00000000       0.00000000       0.00000000       0.00000000       0.00000000      -0.38256812
F        0.00000000       0.00000000       2.70787879       0.00000000       0.00000000       0.38256812
2
Properties=species:S:1:pos:R:3:forces:R:3 energy=-3.837280482163079 pbc="F F F"
F        0.00000000       0.00000000       0.00000000       0.00000000       0.00000000      -0.40024674
F        0.00000000       0.00000000       2.76666667       0.00000000       0.00000000       0.40024674
2
Properties=species:S:1:pos:R:3:forces:R:3 energy=-3.8610466466745628 pbc="F F F"
F        0.00000000       0.00000000       0.00000000       0.00000000       0.00000000      -0.40634793
F        0.00000000       0.00000000       2.82545455       0.00000000       0.00000000       0.40634793
2
Properties=species:S:1:pos:R:3:forces:R:3 energy=-3.884853478967765 pbc="F F F"
F        0.00000000       0.00000000       0.00000000       0.00000000       0.00000000      -0.40217000
F        0.00000000       0.00000000       2.88424242       0.00000000       0.00000000       0.40217000
2
Properties=species:S:1:pos:R:3:forces:R:3 energy=-3.9082361869906066 pbc="F F F"
F        0.00000000       0.00000000       0.00000000       0.00000000       0.00000000      -0.39314273
F        0.00000000       0.00000000       2.94303030       0.00000000       0.00000000       0.39314273
2
Properties=species:S:1:pos:R:3:forces:R:3 energy=-3.931103484341901 pbc="F F F"
F        0.00000000       0.00000000       0.00000000       0.00000000       0.00000000      -0.38537931
F        0.00000000       0.00000000       3.00181818       0.00000000       0.00000000       0.38537931
2
Properties=species:S:1:pos:R:3:forces:R:3 energy=-3.9536231117354967 pbc="F F F"
F        0.00000000       0.00000000       0.00000000       0.00000000       0.00000000      -0.38122523
F        0.00000000       0.00000000       3.06060606       0.00000000       0.00000000       0.38122523
2
Properties=species:S:1:pos:R:3:forces:R:3 energy=-3.9759557206843126 pbc="F F F"
F        0.00000000       0.00000000       0.00000000       0.00000000       0.00000000      -0.37856036
F        0.00000000       0.00000000       3.11939394       0.00000000       0.00000000       0.37856036
2
Properties=species:S:1:pos:R:3:forces:R:3 energy=-3.998109397777352 pbc="F F F"
F        0.00000000       0.00000000       0.00000000       0.00000000       0.00000000      -0.37483370
F        0.00000000       0.00000000       3.17818182       0.00000000       0.00000000       0.37483370
2
Properties=species:S:1:pos:R:3:forces:R:3 energy=-4.019988254948487 pbc="F F F"
F        0.00000000       0.00000000       0.00000000       0.00000000       0.00000000      -0.36910072
F        0.00000000       0.00000000       3.23696970       0.00000000       0.00000000       0.36910072
2
Properties=species:S:1:pos:R:3:forces:R:3 energy=-4.0414653366584075 pbc="F F F"
F        0.00000000       0.00000000       0.00000000       0.00000000       0.00000000      -0.36122876
F        0.00000000       0.00000000       3.29575758       0.00000000       0.00000000       0.36122876
2
Properties=species:S:1:pos:R:3:forces:R:3 energy=-4.062427894478053 pbc="F F F"
F        0.00000000       0.00000000       0.00000000       0.00000000       0.00000000      -0.35179943
F        0.00000000       0.00000000       3.35454545       0.00000000       0.00000000       0.35179943
2
Properties=species:S:1:pos:R:3:forces:R:3 energy=-4.0828207418501075 pbc="F F F"
F        0.00000000       0.00000000       0.00000000       0.00000000       0.00000000      -0.34202379
F        0.00000000       0.00000000       3.41333333       0.00000000       0.00000000       0.34202379
2
Properties=species:S:1:pos:R:3:forces:R:3 energy=-4.102665786791477 pbc="F F F"
F        0.00000000       0.00000000       0.00000000       0.00000000       0.00000000      -0.33346960
F        0.00000000       0.00000000       3.47212121       0.00000000       0.00000000       0.33346960
2
Properties=species:S:1:pos:R:3:forces:R:3 energy=-4.122080140023956 pbc="F F F"
F        0.00000000       0.00000000       0.00000000       0.00000000       0.00000000      -0.32750693
F        0.00000000       0.00000000       3.53090909       0.00000000       0.00000000       0.32750693
2
Properties=species:S:1:pos:R:3:forces:R:3 energy=-4.1412308146522445 pbc="F F F"
F        0.00000000       0.00000000       0.00000000       0.00000000       0.00000000      -0.32444441
F        0.00000000       0.00000000       3.58969697       0.00000000       0.00000000       0.32444441
2
Properties=species:S:1:pos:R:3:forces:R:3 energy=-4.160264155254475 pbc="F F F"
F        0.00000000       0.00000000       0.00000000       0.00000000       0.00000000      -0.32326892
F        0.00000000       0.00000000       3.64848485       0.00000000       0.00000000       0.32326892
2
Properties=species:S:1:pos:R:3:forces:R:3 energy=-4.179243391617401 pbc="F F F"
F        0.00000000       0.00000000       0.00000000       0.00000000       0.00000000      -0.32233128
F        0.00000000       0.00000000       3.70727273       0.00000000       0.00000000       0.32233128
2
Properties=species:S:1:pos:R:3:forces:R:3 energy=-4.198140534682586 pbc="F F F"
F        0.00000000       0.00000000       0.00000000       0.00000000       0.00000000      -0.32033175
F        0.00000000       0.00000000       3.76606061       0.00000000       0.00000000       0.32033175
2
Properties=species:S:1:pos:R:3:forces:R:3 energy=-4.2168774144383265 pbc="F F F"
F        0.00000000       0.00000000       0.00000000       0.00000000       0.00000000      -0.31684467
F        0.00000000       0.00000000       3.82484848       0.00000000       0.00000000       0.31684467
2
Properties=species:S:1:pos:R:3:forces:R:3 energy=-4.235371464899363 pbc="F F F"
F        0.00000000       0.00000000       0.00000000       0.00000000       0.00000000      -0.31217471
F        0.00000000       0.00000000       3.88363636       0.00000000       0.00000000       0.31217471
2
Properties=species:S:1:pos:R:3:forces:R:3 energy=-4.253569604491704 pbc="F F F"
F        0.00000000       0.00000000       0.00000000       0.00000000       0.00000000      -0.30685824
F        0.00000000       0.00000000       3.94242424       0.00000000       0.00000000       0.30685824
2
Properties=species:S:1:pos:R:3:forces:R:3 energy=-4.271444911358786 pbc="F F F"
F        0.00000000       0.00000000       0.00000000       0.00000000       0.00000000      -0.30127221
F        0.00000000       0.00000000       4.00121212       0.00000000       0.00000000       0.30127221
2
Properties=species:S:1:pos:R:3:forces:R:3 energy=-4.288988057814634 pbc="F F F"
F        0.00000000       0.00000000       0.00000000       0.00000000       0.00000000      -0.29552853
F        0.00000000       0.00000000       4.06000000       0.00000000       0.00000000       0.29552853
2
Properties=species:S:1:pos:R:3:forces:R:3 energy=-4.306187772295696 pbc="F F F"
F        0.00000000       0.00000000       0.00000000       0.00000000       0.00000000      -0.28956190
F        0.00000000       0.00000000       4.11878788       0.00000000       0.00000000       0.28956190
2
Properties=species:S:1:pos:R:3:forces:R:3 energy=-4.323027514963973 pbc="F F F"
F        0.00000000       0.00000000       0.00000000       0.00000000       0.00000000      -0.28324088
F        0.00000000       0.00000000       4.17757576       0.00000000       0.00000000       0.28324088
2
Properties=species:S:1:pos:R:3:forces:R:3 energy=-4.3394816732061825 pbc="F F F"
F        0.00000000       0.00000000       0.00000000       0.00000000       0.00000000      -0.27645162
F        0.00000000       0.00000000       4.23636364       0.00000000       0.00000000       0.27645162
2
Properties=species:S:1:pos:R:3:forces:R:3 energy=-4.355521289619324 pbc="F F F"
F        0.00000000       0.00000000       0.00000000       0.00000000       0.00000000      -0.26913631
F        0.00000000       0.00000000       4.29515152       0.00000000       0.00000000       0.26913631
2
Properties=species:S:1:pos:R:3:forces:R:3 energy=-4.371114548648285 pbc="F F F"
F        0.00000000       0.00000000       0.00000000       0.00000000       0.00000000      -0.26131672
F        0.00000000       0.00000000       4.35393939       0.00000000       0.00000000       0.26131672
2
Properties=species:S:1:pos:R:3:forces:R:3 energy=-4.386237745077916 pbc="F F F"
F        0.00000000       0.00000000       0.00000000       0.00000000       0.00000000      -0.25306484
F        0.00000000       0.00000000       4.41272727       0.00000000       0.00000000       0.25306484
2
Properties=species:S:1:pos:R:3:forces:R:3 energy=-4.400863370479152 pbc="F F F"
F        0.00000000       0.00000000       0.00000000       0.00000000       0.00000000      -0.24444291
F        0.00000000       0.00000000       4.47151515       0.00000000       0.00000000       0.24444291
2
Properties=species:S:1:pos:R:3:forces:R:3 energy=-4.414971081008129 pbc="F F F"
F        0.00000000       0.00000000       0.00000000       0.00000000       0.00000000      -0.23543780
F        0.00000000       0.00000000       4.53030303       0.00000000       0.00000000       0.23543780
2
Properties=species:S:1:pos:R:3:forces:R:3 energy=-4.428534347846644 pbc="F F F"
F        0.00000000       0.00000000       0.00000000       0.00000000       0.00000000      -0.22593531
F        0.00000000       0.00000000       4.58909091       0.00000000       0.00000000       0.22593531
2
Properties=species:S:1:pos:R:3:forces:R:3 energy=-4.441521414143291 pbc="F F F"
F        0.00000000       0.00000000       0.00000000       0.00000000       0.00000000      -0.21577372
F        0.00000000       0.00000000       4.64787879       0.00000000       0.00000000       0.21577372
2
Properties=species:S:1:pos:R:3:forces:R:3 energy=-4.453889094200009 pbc="F F F"
F        0.00000000       0.00000000       0.00000000       0.00000000       0.00000000      -0.20483552
F        0.00000000       0.00000000       4.70666667       0.00000000       0.00000000       0.20483552
2
Properties=species:S:1:pos:R:3:forces:R:3 energy=-4.465589927959852 pbc="F F F"
F        0.00000000       0.00000000       0.00000000       0.00000000       0.00000000      -0.19315897
F        0.00000000       0.00000000       4.76545455       0.00000000       0.00000000       0.19315897
2
Properties=species:S:1:pos:R:3:forces:R:3 energy=-4.476589823288874 pbc="F F F"
F        0.00000000       0.00000000       0.00000000       0.00000000       0.00000000      -0.18098372
F        0.00000000       0.00000000       4.82424242       0.00000000       0.00000000       0.18098372
2
Properties=species:S:1:pos:R:3:forces:R:3 energy=-4.4868666253656695 pbc="F F F"
F        0.00000000       0.00000000       0.00000000       0.00000000       0.00000000      -0.16872437
F        0.00000000       0.00000000       4.88303030       0.00000000       0.00000000       0.16872437
2
Properties=species:S:1:pos:R:3:forces:R:3 energy=-4.496434910976159 pbc="F F F"
F        0.00000000       0.00000000       0.00000000       0.00000000       0.00000000      -0.15685241
F        0.00000000       0.00000000       4.94181818       0.00000000       0.00000000       0.15685241
2
Properties=species:S:1:pos:R:3:forces:R:3 energy=-4.50532500728266 pbc="F F F"
F        0.00000000       0.00000000       0.00000000       0.00000000       0.00000000      -0.14575462
F        0.00000000       0.00000000       5.00060606       0.00000000       0.00000000       0.14575462
2
Properties=species:S:1:pos:R:3:forces:R:3 energy=-4.513591098278306 pbc="F F F"
F        0.00000000       0.00000000       0.00000000       0.00000000       0.00000000      -0.13559477
F        0.00000000       0.00000000       5.05939394       0.00000000       0.00000000       0.13559477
2
Properties=species:S:1:pos:R:3:forces:R:3 energy=-4.521283566128245 pbc="F F F"
F        0.00000000       0.00000000       0.00000000       0.00000000       0.00000000      -0.12625988
F        0.00000000       0.00000000       5.11818182       0.00000000       0.00000000       0.12625988
2
Properties=species:S:1:pos:R:3:forces:R:3 energy=-4.52844517575466 pbc="F F F"
F        0.00000000       0.00000000       0.00000000       0.00000000       0.00000000      -0.11738192
F        0.00000000       0.00000000       5.17696970       0.00000000       0.00000000       0.11738192
2
Properties=species:S:1:pos:R:3:forces:R:3 energy=-4.535084372673622 pbc="F F F"
F        0.00000000       0.00000000       0.00000000       0.00000000       0.00000000      -0.10844745
F        0.00000000       0.00000000       5.23575758       0.00000000       0.00000000       0.10844745
2
Properties=species:S:1:pos:R:3:forces:R:3 energy=-4.541184816446687 pbc="F F F"
F        0.00000000       0.00000000       0.00000000       0.00000000       0.00000000      -0.09893247
F        0.00000000       0.00000000       5.29454545       0.00000000       0.00000000       0.09893247
2
Properties=species:S:1:pos:R:3:forces:R:3 energy=-4.54669870656934 pbc="F F F"
F        0.00000000       0.00000000       0.00000000       0.00000000       0.00000000      -0.08846849
F        0.00000000       0.00000000       5.35333333       0.00000000       0.00000000       0.08846849
2
Properties=species:S:1:pos:R:3:forces:R:3 energy=-4.551563946381321 pbc="F F F"
F        0.00000000       0.00000000       0.00000000       0.00000000       0.00000000      -0.07693064
F        0.00000000       0.00000000       5.41212121       0.00000000       0.00000000       0.07693064
2
Properties=species:S:1:pos:R:3:forces:R:3 energy=-4.555724646693189 pbc="F F F"
F        0.00000000       0.00000000       0.00000000       0.00000000       0.00000000      -0.06449434
F        0.00000000       0.00000000       5.47090909       0.00000000       0.00000000       0.06449434
2
Properties=species:S:1:pos:R:3:forces:R:3 energy=-4.55913875473539 pbc="F F F"
F        0.00000000       0.00000000       0.00000000       0.00000000       0.00000000      -0.05162293
F        0.00000000       0.00000000       5.52969697       0.00000000       0.00000000       0.05162293
2
Properties=species:S:1:pos:R:3:forces:R:3 energy=-4.56179951110028 pbc="F F F"
F        0.00000000       0.00000000       0.00000000       0.00000000       0.00000000      -0.03898319
F        0.00000000       0.00000000       5.58848485       0.00000000       0.00000000       0.03898319
2
Properties=species:S:1:pos:R:3:forces:R:3 energy=-4.5637411710703235 pbc="F F F"
F        0.00000000       0.00000000       0.00000000       0.00000000       0.00000000      -0.02733085
F        0.00000000       0.00000000       5.64727273       0.00000000       0.00000000       0.02733085
2
Properties=species:S:1:pos:R:3:forces:R:3 energy=-4.565045679830956 pbc="F F F"
F        0.00000000       0.00000000       0.00000000       0.00000000       0.00000000      -0.01735860
F        0.00000000       0.00000000       5.70606061       0.00000000       0.00000000       0.01735860
2
Properties=species:S:1:pos:R:3:forces:R:3 energy=-4.565826459660729 pbc="F F F"
F        0.00000000       0.00000000       0.00000000       0.00000000       0.00000000      -0.00958633
F        0.00000000       0.00000000       5.76484848       0.00000000       0.00000000       0.00958633
2
Properties=species:S:1:pos:R:3:forces:R:3 energy=-4.56622125685421 pbc="F F F"
F        0.00000000       0.00000000       0.00000000       0.00000000       0.00000000      -0.00425327
F        0.00000000       0.00000000       5.82363636       0.00000000       0.00000000       0.00425327
2
Properties=species:S:1:pos:R:3:forces:R:3 energy=-4.566372113769389 pbc="F F F"
F        0.00000000       0.00000000       0.00000000       0.00000000       0.00000000      -0.00123401
F        0.00000000       0.00000000       5.88242424       0.00000000       0.00000000       0.00123401
2
Properties=species:S:1:pos:R:3:forces:R:3 energy=-4.566402480829694 pbc="F F F"
F        0.00000000       0.00000000       0.00000000       0.00000000       0.00000000      -0.00003706
F        0.00000000       0.00000000       5.94121212       0.00000000       0.00000000       0.00003706
2
Properties=species:S:1:pos:R:3:forces:R:3 energy=-4.566396711697115 pbc="F F F"
F        0.00000000       0.00000000       0.00000000       0.00000000       0.00000000       0.00013400
F        0.00000000       0.00000000       6.00000000       0.00000000       0.00000000      -0.00013400
