2
Properties=species:S:1:pos:R:3:forces:R:3 energy=106439599.96975397 pbc="F F F"
Fe       0.00000000       0.00000000       0.00000000       0.00000000       0.00000000 -933421568.00000000
Fe       0.00000000       0.00000000       0.18000000       0.00000000       0.00000000 933421568.00000000
2
Properties=species:S:1:pos:R:3:forces:R:3 energy=58195787.96975397 pbc="F F F"
Fe       0.00000000       0.00000000       0.00000000       0.00000000       0.00000000 -683752384.00000000
Fe       0.00000000       0.00000000       0.23878788       0.00000000       0.00000000 683752384.00000000
2
Properties=species:S:1:pos:R:3:forces:R:3 energy=26746945.969753977 pbc="F F F"
Fe       0.00000000       0.00000000       0.00000000       0.00000000       0.00000000 -391545920.00000000
Fe       0.00000000       0.00000000       0.29757576       0.00000000       0.00000000 391545920.00000000
2
Properties=species:S:1:pos:R:3:forces:R:3 energy=10544116.969753977 pbc="F F F"
Fe       0.00000000       0.00000000       0.00000000       0.00000000       0.00000000 -178193920.00000000
Fe       0.00000000       0.00000000       0.35636364       0.00000000       0.00000000 178193920.00000000
2
Properties=species:S:1:pos:R:3:forces:R:3 energy=3696181.7197539825 pbc="F F F"
Fe       0.00000000       0.00000000       0.00000000       0.00000000       0.00000000 -69360448.00000000
Fe       0.00000000       0.00000000       0.41515152       0.00000000       0.00000000 69360448.00000000
2
Properties=species:S:1:pos:R:3:forces:R:3 energy=1163393.2197539953 pbc="F F F"
Fe       0.00000000       0.00000000       0.00000000       0.00000000       0.00000000 -23466806.00000000
Fe       0.00000000       0.00000000       0.47393939       0.00000000       0.00000000 23466806.00000000
2
Properties=species:S:1:pos:R:3:forces:R:3 energy=340915.6885040143 pbc="F F F"
Fe       0.00000000       0.00000000       0.00000000       0.00000000       0.00000000 -7561756.50000000
Fe       0.00000000       0.00000000       0.53272727       0.00000000       0.00000000 7561756.50000000
2
Properties=species:S:1:pos:R:3:forces:R:3 energy=87125.07131654595 pbc="F F F"
Fe       0.00000000       0.00000000       0.00000000       0.00000000       0.00000000 -2060418.75000000
Fe       0.00000000       0.00000000       0.59151515       0.00000000       0.00000000 2060418.75000000
2
Properties=species:S:1:pos:R:3:forces:R:3 energy=19927.311550981136 pbc="F F F"
Fe       0.00000000       0.00000000       0.00000000       0.00000000       0.00000000 -519212.09375000
Fe       0.00000000       0.00000000       0.65030303       0.00000000       0.00000000  519212.09375000
2
Properties=species:S:1:pos:R:3:forces:R:3 energy=4664.145047166754 pbc="F F F"
Fe       0.00000000       0.00000000       0.00000000       0.00000000       0.00000000 -121865.78906250
Fe       0.00000000       0.00000000       0.70909091       0.00000000       0.00000000  121865.78906250
2
Properties=species:S:1:pos:R:3:forces:R:3 energy=875.1125766030128 pbc="F F F"
Fe       0.00000000       0.00000000       0.00000000       0.00000000       0.00000000  -27796.66796875
Fe       0.00000000       0.00000000       0.76787879       0.00000000       0.00000000   27796.66796875
2
Properties=species:S:1:pos:R:3:forces:R:3 energy=128.53284963290193 pbc="F F F"
Fe       0.00000000       0.00000000       0.00000000       0.00000000       0.00000000   -3901.47534180
Fe       0.00000000       0.00000000       0.82666667       0.00000000       0.00000000    3901.47534180
2
Properties=species:S:1:pos:R:3:forces:R:3 energy=43.94601597048414 pbc="F F F"
Fe       0.00000000       0.00000000       0.00000000       0.00000000       0.00000000    -253.23355103
Fe       0.00000000       0.00000000       0.88545455       0.00000000       0.00000000     253.23355103
2
Properties=species:S:1:pos:R:3:forces:R:3 energy=40.562604974830315 pbc="F F F"
Fe       0.00000000       0.00000000       0.00000000       0.00000000       0.00000000     -43.55709076
Fe       0.00000000       0.00000000       0.94424242       0.00000000       0.00000000      43.55709076
2
Properties=species:S:1:pos:R:3:forces:R:3 energy=35.01330820593898 pbc="F F F"
Fe       0.00000000       0.00000000       0.00000000       0.00000000       0.00000000    -123.51385498
Fe       0.00000000       0.00000000       1.00303030       0.00000000       0.00000000     123.51385498
2
Properties=species:S:1:pos:R:3:forces:R:3 energy=28.13244196182177 pbc="F F F"
Fe       0.00000000       0.00000000       0.00000000       0.00000000       0.00000000    -113.30380249
Fe       0.00000000       0.00000000       1.06181818       0.00000000       0.00000000     113.30380249
2
Properties=species:S:1:pos:R:3:forces:R:3 energy=22.191090131286575 pbc="F F F"
Fe       0.00000000       0.00000000       0.00000000       0.00000000       0.00000000     -97.31221008
Fe       0.00000000       0.00000000       1.12060606       0.00000000       0.00000000      97.31221008
2
Properties=species:S:1:pos:R:3:forces:R:3 energy=16.33404913964634 pbc="F F F"
Fe       0.00000000       0.00000000       0.00000000       0.00000000       0.00000000    -102.72764587
Fe       0.00000000       0.00000000       1.17939394       0.00000000       0.00000000     102.72764587
2
Properties=species:S:1:pos:R:3:forces:R:3 energy=10.86755724687074 pbc="F F F"
Fe       0.00000000       0.00000000       0.00000000       0.00000000       0.00000000     -86.72274780
Fe       0.00000000       0.00000000       1.23818182       0.00000000       0.00000000      86.72274780
2
Properties=species:S:1:pos:R:3:forces:R:3 energy=6.220796584767631 pbc="F F F"
Fe       0.00000000       0.00000000       0.00000000       0.00000000       0.00000000     -73.57363129
Fe       0.00000000       0.00000000       1.29696970       0.00000000       0.00000000      73.57363129
2
Properties=species:S:1:pos:R:3:forces:R:3 energy=2.270581155928417 pbc="F F F"
Fe       0.00000000       0.00000000       0.00000000       0.00000000       0.00000000     -60.47524643
Fe       0.00000000       0.00000000       1.35575758       0.00000000       0.00000000      60.47524643
2
Properties=species:S:1:pos:R:3:forces:R:3 energy=-0.9079832679945146 pbc="F F F"
Fe       0.00000000       0.00000000       0.00000000       0.00000000       0.00000000     -47.84811020
Fe       0.00000000       0.00000000       1.41454545       0.00000000       0.00000000      47.84811020
2
Properties=species:S:1:pos:R:3:forces:R:3 energy=-3.383816679947213 pbc="F F F"
Fe       0.00000000       0.00000000       0.00000000       0.00000000       0.00000000     -36.24549103
Fe       0.00000000       0.00000000       1.47333333       0.00000000       0.00000000      36.24549103
2
Properties=species:S:1:pos:R:3:forces:R:3 energy=-5.16931767300439 pbc="F F F"
Fe       0.00000000       0.00000000       0.00000000       0.00000000       0.00000000     -24.96605682
Fe       0.00000000       0.00000000       1.53212121       0.00000000       0.00000000      24.96605682
2
Properties=species:S:1:pos:R:3:forces:R:3 energy=-6.3892643785033085 pbc="F F F"
Fe       0.00000000       0.00000000       0.00000000       0.00000000       0.00000000     -17.22291183
Fe       0.00000000       0.00000000       1.59090909       0.00000000       0.00000000      17.22291183
2
Properties=species:S:1:pos:R:3:forces:R:3 energy=-7.257640733019994 pbc="F F F"
Fe       0.00000000       0.00000000       0.00000000       0.00000000       0.00000000     -12.47734547
Fe       0.00000000       0.00000000       1.64969697       0.00000000       0.00000000      12.47734547
2
Properties=species:S:1:pos:R:3:forces:R:3 energy=-7.884259050081497 pbc="F F F"
Fe       0.00000000       0.00000000       0.00000000       0.00000000       0.00000000      -8.99902344
Fe       0.00000000       0.00000000       1.70848485       0.00000000       0.00000000       8.99902344
2
Properties=species:S:1:pos:R:3:forces:R:3 energy=-8.319600984904456 pbc="F F F"
Fe       0.00000000       0.00000000       0.00000000       0.00000000       0.00000000      -5.91850138
Fe       0.00000000       0.00000000       1.76727273       0.00000000       0.00000000       5.91850138
2
Properties=species:S:1:pos:R:3:forces:R:3 energy=-8.605960944552654 pbc="F F F"
Fe       0.00000000       0.00000000       0.00000000       0.00000000       0.00000000      -3.93063450
Fe       0.00000000       0.00000000       1.82606061       0.00000000       0.00000000       3.93063450
2
Properties=species:S:1:pos:R:3:forces:R:3 energy=-8.777865690301125 pbc="F F F"
Fe       0.00000000       0.00000000       0.00000000       0.00000000       0.00000000      -2.06702375
Fe       0.00000000       0.00000000       1.88484848       0.00000000       0.00000000       2.06702375
2
Properties=species:S:1:pos:R:3:forces:R:3 energy=-8.862894256633913 pbc="F F F"
Fe       0.00000000       0.00000000       0.00000000       0.00000000       0.00000000      -0.85286993
Fe       0.00000000       0.00000000       1.94363636       0.00000000       0.00000000       0.85286993
2
Properties=species:S:1:pos:R:3:forces:R:3 energy=-8.88836527694981 pbc="F F F"
Fe       0.00000000       0.00000000       0.00000000       0.00000000       0.00000000      -0.15498014
Fe       0.00000000       0.00000000       2.00242424       0.00000000       0.00000000       0.15498014
2
Properties=species:S:1:pos:R:3:forces:R:3 energy=-8.892393895938339 pbc="F F F"
Fe       0.00000000       0.00000000       0.00000000       0.00000000       0.00000000      -0.00320024
Fe       0.00000000       0.00000000       2.06121212       0.00000000       0.00000000       0.00320024
2
Properties=species:S:1:pos:R:3:forces:R:3 energy=-8.88901238559509 pbc="F F F"
Fe       0.00000000       0.00000000       0.00000000       0.00000000       0.00000000       0.11515599
Fe       0.00000000       0.00000000       2.12000000       0.00000000       0.00000000      -0.11515599
2
Properties=species:S:1:pos:R:3:forces:R:3 energy=-8.87965545313134 pbc="F F F"
Fe       0.00000000       0.00000000       0.00000000       0.00000000       0.00000000       0.18495025
Fe       0.00000000       0.00000000       2.17878788       0.00000000       0.00000000      -0.18495025
2
Properties=species:S:1:pos:R:3:forces:R:3 energy=-8.86865384107647 pbc="F F F"
Fe       0.00000000       0.00000000       0.00000000       0.00000000       0.00000000       0.18468720
Fe       0.00000000       0.00000000       2.23757576       0.00000000       0.00000000      -0.18468720
2
Properties=species:S:1:pos:R:3:forces:R:3 energy=-8.859751137050973 pbc="F F F"
Fe       0.00000000       0.00000000       0.00000000       0.00000000       0.00000000       0.10479104
Fe       0.00000000       0.00000000       2.29636364       0.00000000       0.00000000      -0.10479104
2
Properties=species:S:1:pos:R:3:forces:R:3 energy=-8.854124808404794 pbc="F F F"
Fe       0.00000000       0.00000000       0.00000000       0.00000000       0.00000000       0.13461071
Fe       0.00000000       0.00000000       2.35515152       0.00000000       0.00000000      -0.13461071
2
Properties=species:S:1:pos:R:3:forces:R:3 energy=-8.839298494598605 pbc="F F F"
Fe       0.00000000       0.00000000       0.00000000       0.00000000       0.00000000       0.38244018
Fe       0.00000000       0.00000000       2.41393939       0.00000000       0.00000000      -0.38244018
2
Properties=species:S:1:pos:R:3:forces:R:3 energy=-8.81067822157835 pbc="F F F"
Fe       0.00000000       0.00000000       0.00000000       0.00000000       0.00000000       0.56172717
Fe       0.00000000       0.00000000       2.47272727       0.00000000       0.00000000      -0.56172717
2
Properties=species:S:1:pos:R:3:forces:R:3 energy=-8.776456303587466 pbc="F F F"
Fe       0.00000000       0.00000000       0.00000000       0.00000000       0.00000000       0.58964205
Fe       0.00000000       0.00000000       2.53151515       0.00000000       0.00000000      -0.58964205
2
Properties=species:S:1:pos:R:3:forces:R:3 energy=-8.740805694038098 pbc="F F F"
Fe       0.00000000       0.00000000       0.00000000       0.00000000       0.00000000       0.63822240
Fe       0.00000000       0.00000000       2.59030303       0.00000000       0.00000000      -0.63822240
2
Properties=species:S:1:pos:R:3:forces:R:3 energy=-8.699887261849623 pbc="F F F"
Fe       0.00000000       0.00000000       0.00000000       0.00000000       0.00000000       0.75931382
Fe       0.00000000       0.00000000       2.64909091       0.00000000       0.00000000      -0.75931382
2
Properties=species:S:1:pos:R:3:forces:R:3 energy=-8.651941810905964 pbc="F F F"
Fe       0.00000000       0.00000000       0.00000000       0.00000000       0.00000000       0.86214763
Fe       0.00000000       0.00000000       2.70787879       0.00000000       0.00000000      -0.86214763
2
Properties=species:S:1:pos:R:3:forces:R:3 energy=-8.599750964533927 pbc="F F F"
Fe       0.00000000       0.00000000       0.00000000       0.00000000       0.00000000       0.90472633
Fe       0.00000000       0.00000000       2.76666667       0.00000000       0.00000000      -0.90472633
2
Properties=species:S:1:pos:R:3:forces:R:3 energy=-8.546229069668728 pbc="F F F"
Fe       0.00000000       0.00000000       0.00000000       0.00000000       0.00000000       0.91293806
Fe       0.00000000       0.00000000       2.82545455       0.00000000       0.00000000      -0.91293806
2
Properties=species:S:1:pos:R:3:forces:R:3 energy=-8.492675884220908 pbc="F F F"
Fe       0.00000000       0.00000000       0.00000000       0.00000000       0.00000000       0.90698332
Fe       0.00000000       0.00000000       2.88424242       0.00000000       0.00000000      -0.90698332
2
Properties=species:S:1:pos:R:3:forces:R:3 energy=-8.439826902502844 pbc="F F F"
Fe       0.00000000       0.00000000       0.00000000       0.00000000       0.00000000       0.88918447
Fe       0.00000000       0.00000000       2.94303030       0.00000000       0.00000000      -0.88918447
2
Properties=species:S:1:pos:R:3:forces:R:3 energy=-8.38827495598566 pbc="F F F"
Fe       0.00000000       0.00000000       0.00000000       0.00000000       0.00000000       0.86394507
Fe       0.00000000       0.00000000       3.00181818       0.00000000       0.00000000      -0.86394507
2
Properties=species:S:1:pos:R:3:forces:R:3 energy=-8.338291689605043 pbc="F F F"
Fe       0.00000000       0.00000000       0.00000000       0.00000000       0.00000000       0.83602202
Fe       0.00000000       0.00000000       3.06060606       0.00000000       0.00000000      -0.83602202
2
Properties=species:S:1:pos:R:3:forces:R:3 energy=-8.290083926343339 pbc="F F F"
Fe       0.00000000       0.00000000       0.00000000       0.00000000       0.00000000       0.80276775
Fe       0.00000000       0.00000000       3.11939394       0.00000000       0.00000000      -0.80276775
2
Properties=species:S:1:pos:R:3:forces:R:3 energy=-8.244073088878093 pbc="F F F"
Fe       0.00000000       0.00000000       0.00000000       0.00000000       0.00000000       0.76126897
Fe       0.00000000       0.00000000       3.17818182       0.00000000       0.00000000      -0.76126897
2
Properties=species:S:1:pos:R:3:forces:R:3 energy=-8.200700098181041 pbc="F F F"
Fe       0.00000000       0.00000000       0.00000000       0.00000000       0.00000000       0.71346968
Fe       0.00000000       0.00000000       3.23696970       0.00000000       0.00000000      -0.71346968
2
Properties=species:S:1:pos:R:3:forces:R:3 energy=-8.16027001631154 pbc="F F F"
Fe       0.00000000       0.00000000       0.00000000       0.00000000       0.00000000       0.66135705
Fe       0.00000000       0.00000000       3.29575758       0.00000000       0.00000000      -0.66135705
2
Properties=species:S:1:pos:R:3:forces:R:3 energy=-8.123019253449444 pbc="F F F"
Fe       0.00000000       0.00000000       0.00000000       0.00000000       0.00000000       0.60528892
Fe       0.00000000       0.00000000       3.35454545       0.00000000       0.00000000      -0.60528892
2
Properties=species:S:1:pos:R:3:forces:R:3 energy=-8.089163448015915 pbc="F F F"
Fe       0.00000000       0.00000000       0.00000000       0.00000000       0.00000000       0.54614317
Fe       0.00000000       0.00000000       3.41333333       0.00000000       0.00000000      -0.54614317
2
Properties=species:S:1:pos:R:3:forces:R:3 energy=-8.058817465736793 pbc="F F F"
Fe       0.00000000       0.00000000       0.00000000       0.00000000       0.00000000       0.48642284
Fe       0.00000000       0.00000000       3.47212121       0.00000000       0.00000000      -0.48642284
2
Properties=species:S:1:pos:R:3:forces:R:3 energy=-8.031917814569974 pbc="F F F"
Fe       0.00000000       0.00000000       0.00000000       0.00000000       0.00000000       0.42943102
Fe       0.00000000       0.00000000       3.53090909       0.00000000       0.00000000      -0.42943102
2
Properties=species:S:1:pos:R:3:forces:R:3 energy=-8.008223146885156 pbc="F F F"
Fe       0.00000000       0.00000000       0.00000000       0.00000000       0.00000000       0.37766096
Fe       0.00000000       0.00000000       3.58969697       0.00000000       0.00000000      -0.37766096
2
Properties=species:S:1:pos:R:3:forces:R:3 energy=-7.987394030653432 pbc="F F F"
Fe       0.00000000       0.00000000       0.00000000       0.00000000       0.00000000       0.33195338
Fe       0.00000000       0.00000000       3.64848485       0.00000000       0.00000000      -0.33195338
2
Properties=species:S:1:pos:R:3:forces:R:3 energy=-7.969082594833027 pbc="F F F"
Fe       0.00000000       0.00000000       0.00000000       0.00000000       0.00000000       0.29190114
Fe       0.00000000       0.00000000       3.70727273       0.00000000       0.00000000      -0.29190114
2
Properties=species:S:1:pos:R:3:forces:R:3 energy=-7.952978400771153 pbc="F F F"
Fe       0.00000000       0.00000000       0.00000000       0.00000000       0.00000000       0.25672388
Fe       0.00000000       0.00000000       3.76606061       0.00000000       0.00000000      -0.25672388
2
Properties=species:S:1:pos:R:3:forces:R:3 energy=-7.938814656926179 pbc="F F F"
Fe       0.00000000       0.00000000       0.00000000       0.00000000       0.00000000       0.22583999
Fe       0.00000000       0.00000000       3.82484848       0.00000000       0.00000000      -0.22583999
2
Properties=species:S:1:pos:R:3:forces:R:3 energy=-7.926347257039598 pbc="F F F"
Fe       0.00000000       0.00000000       0.00000000       0.00000000       0.00000000       0.19896178
Fe       0.00000000       0.00000000       3.88363636       0.00000000       0.00000000      -0.19896178
2
Properties=species:S:1:pos:R:3:forces:R:3 energy=-7.915346225577584 pbc="F F F"
Fe       0.00000000       0.00000000       0.00000000       0.00000000       0.00000000       0.17590867
Fe       0.00000000       0.00000000       3.94242424       0.00000000       0.00000000      -0.17590867
2
Properties=species:S:1:pos:R:3:forces:R:3 energy=-7.905595174369561 pbc="F F F"
Fe       0.00000000       0.00000000       0.00000000       0.00000000       0.00000000       0.15638468
Fe       0.00000000       0.00000000       4.00121212       0.00000000       0.00000000      -0.15638468
2
Properties=species:S:1:pos:R:3:forces:R:3 energy=-7.896899892012706 pbc="F F F"
Fe       0.00000000       0.00000000       0.00000000       0.00000000       0.00000000       0.13990489
Fe       0.00000000       0.00000000       4.06000000       0.00000000       0.00000000      -0.13990489
2
Properties=species:S:1:pos:R:3:forces:R:3 energy=-7.889097245386835 pbc="F F F"
Fe       0.00000000       0.00000000       0.00000000       0.00000000       0.00000000       0.12589124
Fe       0.00000000       0.00000000       4.11878788       0.00000000       0.00000000      -0.12589124
2
Properties=species:S:1:pos:R:3:forces:R:3 energy=-7.882059979704216 pbc="F F F"
Fe       0.00000000       0.00000000       0.00000000       0.00000000       0.00000000       0.11382408
Fe       0.00000000       0.00000000       4.17757576       0.00000000       0.00000000      -0.11382408
2
Properties=species:S:1:pos:R:3:forces:R:3 energy=-7.875683631662212 pbc="F F F"
Fe       0.00000000       0.00000000       0.00000000       0.00000000       0.00000000       0.10333759
Fe       0.00000000       0.00000000       4.23636364       0.00000000       0.00000000      -0.10333759
2
Properties=species:S:1:pos:R:3:forces:R:3 energy=-7.869882626046988 pbc="F F F"
Fe       0.00000000       0.00000000       0.00000000       0.00000000       0.00000000       0.09421372
Fe       0.00000000       0.00000000       4.29515152       0.00000000       0.00000000      -0.09421372
2
Properties=species:S:1:pos:R:3:forces:R:3 energy=-7.864582061795879 pbc="F F F"
Fe       0.00000000       0.00000000       0.00000000       0.00000000       0.00000000       0.08631703
Fe       0.00000000       0.00000000       4.35393939       0.00000000       0.00000000      -0.08631703
2
Properties=species:S:1:pos:R:3:forces:R:3 energy=-7.859712248208916 pbc="F F F"
Fe       0.00000000       0.00000000       0.00000000       0.00000000       0.00000000       0.07952893
Fe       0.00000000       0.00000000       4.41272727       0.00000000       0.00000000      -0.07952893
2
Properties=species:S:1:pos:R:3:forces:R:3 energy=-7.855212011130709 pbc="F F F"
Fe       0.00000000       0.00000000       0.00000000       0.00000000       0.00000000       0.07372225
Fe       0.00000000       0.00000000       4.47151515       0.00000000       0.00000000      -0.07372225
2
Properties=species:S:1:pos:R:3:forces:R:3 energy=-7.851027997533568 pbc="F F F"
Fe       0.00000000       0.00000000       0.00000000       0.00000000       0.00000000       0.06876757
Fe       0.00000000       0.00000000       4.53030303       0.00000000       0.00000000      -0.06876757
2
Properties=species:S:1:pos:R:3:forces:R:3 energy=-7.8471122216396205 pbc="F F F"
Fe       0.00000000       0.00000000       0.00000000       0.00000000       0.00000000       0.06455410
Fe       0.00000000       0.00000000       4.58909091       0.00000000       0.00000000      -0.06455410
2
Properties=species:S:1:pos:R:3:forces:R:3 energy=-7.843424837244739 pbc="F F F"
Fe       0.00000000       0.00000000       0.00000000       0.00000000       0.00000000       0.06100193
Fe       0.00000000       0.00000000       4.64787879       0.00000000       0.00000000      -0.06100193
2
Properties=species:S:1:pos:R:3:forces:R:3 energy=-7.839928285791936 pbc="F F F"
Fe       0.00000000       0.00000000       0.00000000       0.00000000       0.00000000       0.05805735
Fe       0.00000000       0.00000000       4.70666667       0.00000000       0.00000000      -0.05805735
2
Properties=species:S:1:pos:R:3:forces:R:3 energy=-7.836587751033773 pbc="F F F"
Fe       0.00000000       0.00000000       0.00000000       0.00000000       0.00000000       0.05568302
Fe       0.00000000       0.00000000       4.76545455       0.00000000       0.00000000      -0.05568302
2
Properties=species:S:1:pos:R:3:forces:R:3 energy=-7.833370183183275 pbc="F F F"
Fe       0.00000000       0.00000000       0.00000000       0.00000000       0.00000000       0.05384538
Fe       0.00000000       0.00000000       4.82424242       0.00000000       0.00000000      -0.05384538
2
Properties=species:S:1:pos:R:3:forces:R:3 energy=-7.830246654589338 pbc="F F F"
Fe       0.00000000       0.00000000       0.00000000       0.00000000       0.00000000       0.05250831
Fe       0.00000000       0.00000000       4.88303030       0.00000000       0.00000000      -0.05250831
2
Properties=species:S:1:pos:R:3:forces:R:3 energy=-7.827187543847805 pbc="F F F"
Fe       0.00000000       0.00000000       0.00000000       0.00000000       0.00000000       0.05162591
Fe       0.00000000       0.00000000       4.94181818       0.00000000       0.00000000      -0.05162591
2
Properties=species:S:1:pos:R:3:forces:R:3 energy=-7.824169764386574 pbc="F F F"
Fe       0.00000000       0.00000000       0.00000000       0.00000000       0.00000000       0.05112905
Fe       0.00000000       0.00000000       5.00060606       0.00000000       0.00000000      -0.05112905
2
Properties=species:S:1:pos:R:3:forces:R:3 energy=-7.821171099440495 pbc="F F F"
Fe       0.00000000       0.00000000       0.00000000       0.00000000       0.00000000       0.05090882
Fe       0.00000000       0.00000000       5.05939394       0.00000000       0.00000000      -0.05090882
2
Properties=species:S:1:pos:R:3:forces:R:3 energy=-7.818181601793662 pbc="F F F"
Fe       0.00000000       0.00000000       0.00000000       0.00000000       0.00000000       0.05079559
Fe       0.00000000       0.00000000       5.11818182       0.00000000       0.00000000      -0.05079559
2
Properties=species:S:1:pos:R:3:forces:R:3 energy=-7.815200363625254 pbc="F F F"
Fe       0.00000000       0.00000000       0.00000000       0.00000000       0.00000000       0.05055588
Fe       0.00000000       0.00000000       5.17696970       0.00000000       0.00000000      -0.05055588
2
Properties=species:S:1:pos:R:3:forces:R:3 energy=-7.812245590278482 pbc="F F F"
Fe       0.00000000       0.00000000       0.00000000       0.00000000       0.00000000       0.04991044
Fe       0.00000000       0.00000000       5.23575758       0.00000000       0.00000000      -0.04991044
2
Properties=species:S:1:pos:R:3:forces:R:3 energy=-7.80934650036454 pbc="F F F"
Fe       0.00000000       0.00000000       0.00000000       0.00000000       0.00000000       0.04857663
Fe       0.00000000       0.00000000       5.29454545       0.00000000       0.00000000      -0.04857663
2
Properties=species:S:1:pos:R:3:forces:R:3 energy=-7.806551546035894 pbc="F F F"
Fe       0.00000000       0.00000000       0.00000000       0.00000000       0.00000000       0.04633266
Fe       0.00000000       0.00000000       5.35333333       0.00000000       0.00000000      -0.04633266
2
Properties=species:S:1:pos:R:3:forces:R:3 energy=-7.803918434252002 pbc="F F F"
Fe       0.00000000       0.00000000       0.00000000       0.00000000       0.00000000       0.04307720
Fe       0.00000000       0.00000000       5.41212121       0.00000000       0.00000000      -0.04307720
2
Properties=species:S:1:pos:R:3:forces:R:3 energy=-7.8015055547978465 pbc="F F F"
Fe       0.00000000       0.00000000       0.00000000       0.00000000       0.00000000       0.03887298
Fe       0.00000000       0.00000000       5.47090909       0.00000000       0.00000000      -0.03887298
2
Properties=species:S:1:pos:R:3:forces:R:3 energy=-7.799363013828679 pbc="F F F"
Fe       0.00000000       0.00000000       0.00000000       0.00000000       0.00000000       0.03394707
Fe       0.00000000       0.00000000       5.52969697       0.00000000       0.00000000      -0.03394707
2
Properties=species:S:1:pos:R:3:forces:R:3 energy=-7.797521707797071 pbc="F F F"
Fe       0.00000000       0.00000000       0.00000000       0.00000000       0.00000000       0.02866238
Fe       0.00000000       0.00000000       5.58848485       0.00000000       0.00000000      -0.02866238
2
Properties=species:S:1:pos:R:3:forces:R:3 energy=-7.795991435111215 pbc="F F F"
Fe       0.00000000       0.00000000       0.00000000       0.00000000       0.00000000       0.02345224
Fe       0.00000000       0.00000000       5.64727273       0.00000000       0.00000000      -0.02345224
2
Properties=species:S:1:pos:R:3:forces:R:3 energy=-7.79475425130097 pbc="F F F"
Fe       0.00000000       0.00000000       0.00000000       0.00000000       0.00000000       0.01873210
Fe       0.00000000       0.00000000       5.70606061       0.00000000       0.00000000      -0.01873210
2
Properties=species:S:1:pos:R:3:forces:R:3 energy=-7.79377263385427 pbc="F F F"
Fe       0.00000000       0.00000000       0.00000000       0.00000000       0.00000000       0.01483198
Fe       0.00000000       0.00000000       5.76484848       0.00000000       0.00000000      -0.01483198
2
Properties=species:S:1:pos:R:3:forces:R:3 energy=-7.7929909166883675 pbc="F F F"
Fe       0.00000000       0.00000000       0.00000000       0.00000000       0.00000000       0.01193621
Fe       0.00000000       0.00000000       5.82363636       0.00000000       0.00000000      -0.01193621
2
Properties=species:S:1:pos:R:3:forces:R:3 energy=-7.792349124763071 pbc="F F F"
Fe       0.00000000       0.00000000       0.00000000       0.00000000       0.00000000       0.01004298
Fe       0.00000000       0.00000000       5.88242424       0.00000000       0.00000000      -0.01004298
2
Properties=species:S:1:pos:R:3:forces:R:3 energy=-7.7917930470577295 pbc="F F F"
Fe       0.00000000       0.00000000       0.00000000       0.00000000       0.00000000       0.00896500
Fe       0.00000000       0.00000000       5.94121212       0.00000000       0.00000000      -0.00896500
2
Properties=species:S:1:pos:R:3:forces:R:3 energy=-7.791285652152634 pbc="F F F"
Fe       0.00000000       0.00000000       0.00000000       0.00000000       0.00000000       0.00836448
Fe       0.00000000       0.00000000       6.00000000       0.00000000       0.00000000      -0.00836448
