2
Properties=species:S:1:pos:R:3:forces:R:3 energy=-8198440.602357516 pbc="F F F"
Gd       0.00000000       0.00000000       0.00000000       0.00000000       0.00000000 84703208.00000000
Gd       0.00000000       0.00000000       0.18000000       0.00000000       0.00000000 -84703208.00000000
2
Properties=species:S:1:pos:R:3:forces:R:3 energy=-3949887.102357516 pbc="F F F"
Gd       0.00000000       0.00000000       0.00000000       0.00000000       0.00000000 57995244.00000000
Gd       0.00000000       0.00000000       0.23878788       0.00000000       0.00000000 -57995244.00000000
2
Properties=species:S:1:pos:R:3:forces:R:3 energy=-1441666.727357516 pbc="F F F"
Gd       0.00000000       0.00000000       0.00000000       0.00000000       0.00000000 27465160.00000000
Gd       0.00000000       0.00000000       0.29757576       0.00000000       0.00000000 -27465160.00000000
2
Properties=species:S:1:pos:R:3:forces:R:3 energy=-393342.1961075162 pbc="F F F"
Gd       0.00000000       0.00000000       0.00000000       0.00000000       0.00000000 9924903.00000000
Gd       0.00000000       0.00000000       0.35636364       0.00000000       0.00000000 -9924903.00000000
2
Properties=species:S:1:pos:R:3:forces:R:3 energy=-71033.26642000982 pbc="F F F"
Gd       0.00000000       0.00000000       0.00000000       0.00000000       0.00000000 2425835.25000000
Gd       0.00000000       0.00000000       0.41515152       0.00000000       0.00000000 -2425835.25000000
2
Properties=species:S:1:pos:R:3:forces:R:3 energy=-6574.035462972236 pbc="F F F"
Gd       0.00000000       0.00000000       0.00000000       0.00000000       0.00000000  310974.18750000
Gd       0.00000000       0.00000000       0.47393939       0.00000000       0.00000000 -310974.18750000
2
Properties=species:S:1:pos:R:3:forces:R:3 energy=-198.6584487930729 pbc="F F F"
Gd       0.00000000       0.00000000       0.00000000       0.00000000       0.00000000   14739.81445312
Gd       0.00000000       0.00000000       0.53272727       0.00000000       0.00000000  -14739.81445312
2
Properties=species:S:1:pos:R:3:forces:R:3 energy=288.41384738751907 pbc="F F F"
Gd       0.00000000       0.00000000       0.00000000       0.00000000       0.00000000   16311.00781250
Gd       0.00000000       0.00000000       0.59151515       0.00000000       0.00000000  -16311.00781250
2
Properties=species:S:1:pos:R:3:forces:R:3 energy=829.4293198503136 pbc="F F F"
Gd       0.00000000       0.00000000       0.00000000       0.00000000       0.00000000    4239.93505859
Gd       0.00000000       0.00000000       0.65030303       0.00000000       0.00000000   -4239.93505859
2
Properties=species:S:1:pos:R:3:forces:R:3 energy=927.0541978623645 pbc="F F F"
Gd       0.00000000       0.00000000       0.00000000       0.00000000       0.00000000      20.72372055
Gd       0.00000000       0.00000000       0.70909091       0.00000000       0.00000000     -20.72372055
2
Properties=species:S:1:pos:R:3:forces:R:3 energy=804.0451647986237 pbc="F F F"
Gd       0.00000000       0.00000000       0.00000000       0.00000000       0.00000000   -3031.21118164
Gd       0.00000000       0.00000000       0.76787879       0.00000000       0.00000000    3031.21118164
2
Properties=species:S:1:pos:R:3:forces:R:3 energy=612.821043894943 pbc="F F F"
Gd       0.00000000       0.00000000       0.00000000       0.00000000       0.00000000   -3495.03881836
Gd       0.00000000       0.00000000       0.82666667       0.00000000       0.00000000    3495.03881836
2
Properties=species:S:1:pos:R:3:forces:R:3 energy=383.32897874402386 pbc="F F F"
Gd       0.00000000       0.00000000       0.00000000       0.00000000       0.00000000   -3555.86547852
Gd       0.00000000       0.00000000       0.88545455       0.00000000       0.00000000    3555.86547852
2
Properties=species:S:1:pos:R:3:forces:R:3 energy=210.42285119447502 pbc="F F F"
Gd       0.00000000       0.00000000       0.00000000       0.00000000       0.00000000   -2345.40649414
Gd       0.00000000       0.00000000       0.94424242       0.00000000       0.00000000    2345.40649414
2
Properties=species:S:1:pos:R:3:forces:R:3 energy=102.0971528804657 pbc="F F F"
Gd       0.00000000       0.00000000       0.00000000       0.00000000       0.00000000   -1393.39892578
Gd       0.00000000       0.00000000       1.00303030       0.00000000       0.00000000    1393.39892578
2
Properties=species:S:1:pos:R:3:forces:R:3 energy=45.04389660786812 pbc="F F F"
Gd       0.00000000       0.00000000       0.00000000       0.00000000       0.00000000    -649.21118164
Gd       0.00000000       0.00000000       1.06181818       0.00000000       0.00000000     649.21118164
2
Properties=species:S:1:pos:R:3:forces:R:3 energy=16.518270434655584 pbc="F F F"
Gd       0.00000000       0.00000000       0.00000000       0.00000000       0.00000000    -346.26394653
Gd       0.00000000       0.00000000       1.12060606       0.00000000       0.00000000     346.26394653
2
Properties=species:S:1:pos:R:3:forces:R:3 energy=1.081816909828291 pbc="F F F"
Gd       0.00000000       0.00000000       0.00000000       0.00000000       0.00000000    -188.54141235
Gd       0.00000000       0.00000000       1.17939394       0.00000000       0.00000000     188.54141235
2
Properties=species:S:1:pos:R:3:forces:R:3 energy=-7.539456422702531 pbc="F F F"
Gd       0.00000000       0.00000000       0.00000000       0.00000000       0.00000000    -106.11070251
Gd       0.00000000       0.00000000       1.23818182       0.00000000       0.00000000     106.11070251
2
Properties=species:S:1:pos:R:3:forces:R:3 energy=-12.457928548334541 pbc="F F F"
Gd       0.00000000       0.00000000       0.00000000       0.00000000       0.00000000     -64.68485260
Gd       0.00000000       0.00000000       1.29696970       0.00000000       0.00000000      64.68485260
2
Properties=species:S:1:pos:R:3:forces:R:3 energy=-15.346389912048116 pbc="F F F"
Gd       0.00000000       0.00000000       0.00000000       0.00000000       0.00000000     -36.07123947
Gd       0.00000000       0.00000000       1.35575758       0.00000000       0.00000000      36.07123947
2
Properties=species:S:1:pos:R:3:forces:R:3 energy=-17.03605146454697 pbc="F F F"
Gd       0.00000000       0.00000000       0.00000000       0.00000000       0.00000000     -23.18799782
Gd       0.00000000       0.00000000       1.41454545       0.00000000       0.00000000      23.18799782
2
Properties=species:S:1:pos:R:3:forces:R:3 energy=-18.14280742842339 pbc="F F F"
Gd       0.00000000       0.00000000       0.00000000       0.00000000       0.00000000     -13.34055710
Gd       0.00000000       0.00000000       1.47333333       0.00000000       0.00000000      13.34055710
2
Properties=species:S:1:pos:R:3:forces:R:3 energy=-18.56101338753383 pbc="F F F"
Gd       0.00000000       0.00000000       0.00000000       0.00000000       0.00000000      -2.14044619
Gd       0.00000000       0.00000000       1.53212121       0.00000000       0.00000000       2.14044619
2
Properties=species:S:1:pos:R:3:forces:R:3 energy=-18.532309287100855 pbc="F F F"
Gd       0.00000000       0.00000000       0.00000000       0.00000000       0.00000000       2.17914295
Gd       0.00000000       0.00000000       1.59090909       0.00000000       0.00000000      -2.17914295
2
Properties=species:S:1:pos:R:3:forces:R:3 energy=-18.35034077681285 pbc="F F F"
Gd       0.00000000       0.00000000       0.00000000       0.00000000       0.00000000       3.79662418
Gd       0.00000000       0.00000000       1.64969697       0.00000000       0.00000000      -3.79662418
2
Properties=species:S:1:pos:R:3:forces:R:3 energy=-18.164458748581737 pbc="F F F"
Gd       0.00000000       0.00000000       0.00000000       0.00000000       0.00000000       1.95976830
Gd       0.00000000       0.00000000       1.70848485       0.00000000       0.00000000      -1.95976830
2
Properties=species:S:1:pos:R:3:forces:R:3 energy=-18.1169358982005 pbc="F F F"
Gd       0.00000000       0.00000000       0.00000000       0.00000000       0.00000000      -0.15166801
Gd       0.00000000       0.00000000       1.76727273       0.00000000       0.00000000       0.15166801
2
Properties=species:S:1:pos:R:3:forces:R:3 energy=-18.185396827417968 pbc="F F F"
Gd       0.00000000       0.00000000       0.00000000       0.00000000       0.00000000      -2.32708192
Gd       0.00000000       0.00000000       1.82606061       0.00000000       0.00000000       2.32708192
2
Properties=species:S:1:pos:R:3:forces:R:3 energy=-18.372225411578594 pbc="F F F"
Gd       0.00000000       0.00000000       0.00000000       0.00000000       0.00000000      -3.93673038
Gd       0.00000000       0.00000000       1.88484848       0.00000000       0.00000000       3.93673038
2
Properties=species:S:1:pos:R:3:forces:R:3 energy=-18.650808041405732 pbc="F F F"
Gd       0.00000000       0.00000000       0.00000000       0.00000000       0.00000000      -5.48459291
Gd       0.00000000       0.00000000       1.94363636       0.00000000       0.00000000       5.48459291
2
Properties=species:S:1:pos:R:3:forces:R:3 energy=-19.006997500272927 pbc="F F F"
Gd       0.00000000       0.00000000       0.00000000       0.00000000       0.00000000      -6.57290888
Gd       0.00000000       0.00000000       2.00242424       0.00000000       0.00000000       6.57290888
2
Properties=species:S:1:pos:R:3:forces:R:3 energy=-19.420415238227758 pbc="F F F"
Gd       0.00000000       0.00000000       0.00000000       0.00000000       0.00000000      -7.41367579
Gd       0.00000000       0.00000000       2.06121212       0.00000000       0.00000000       7.41367579
2
Properties=species:S:1:pos:R:3:forces:R:3 energy=-19.860100659075222 pbc="F F F"
Gd       0.00000000       0.00000000       0.00000000       0.00000000       0.00000000      -7.39766645
Gd       0.00000000       0.00000000       2.12000000       0.00000000       0.00000000       7.39766645
2
Properties=species:S:1:pos:R:3:forces:R:3 energy=-20.285293177666706 pbc="F F F"
Gd       0.00000000       0.00000000       0.00000000       0.00000000       0.00000000      -7.09988594
Gd       0.00000000       0.00000000       2.17878788       0.00000000       0.00000000       7.09988594
2
Properties=species:S:1:pos:R:3:forces:R:3 energy=-20.695307422278606 pbc="F F F"
Gd       0.00000000       0.00000000       0.00000000       0.00000000       0.00000000      -6.81712580
Gd       0.00000000       0.00000000       2.23757576       0.00000000       0.00000000       6.81712580
2
Properties=species:S:1:pos:R:3:forces:R:3 energy=-21.08390379662598 pbc="F F F"
Gd       0.00000000       0.00000000       0.00000000       0.00000000       0.00000000      -6.37267017
Gd       0.00000000       0.00000000       2.29636364       0.00000000       0.00000000       6.37267017
2
Properties=species:S:1:pos:R:3:forces:R:3 energy=-21.438748630507394 pbc="F F F"
Gd       0.00000000       0.00000000       0.00000000       0.00000000       0.00000000      -5.65790701
Gd       0.00000000       0.00000000       2.35515152       0.00000000       0.00000000       5.65790701
2
Properties=species:S:1:pos:R:3:forces:R:3 energy=-21.748623982979517 pbc="F F F"
Gd       0.00000000       0.00000000       0.00000000       0.00000000       0.00000000      -4.90236473
Gd       0.00000000       0.00000000       2.41393939       0.00000000       0.00000000       4.90236473
2
Properties=species:S:1:pos:R:3:forces:R:3 energy=-22.017252149597265 pbc="F F F"
Gd       0.00000000       0.00000000       0.00000000       0.00000000       0.00000000      -4.25245571
Gd       0.00000000       0.00000000       2.47272727       0.00000000       0.00000000       4.25245571
2
Properties=species:S:1:pos:R:3:forces:R:3 energy=-22.250089041096025 pbc="F F F"
Gd       0.00000000       0.00000000       0.00000000       0.00000000       0.00000000      -3.67946458
Gd       0.00000000       0.00000000       2.53151515       0.00000000       0.00000000       3.67946458
2
Properties=species:S:1:pos:R:3:forces:R:3 energy=-22.451697903708457 pbc="F F F"
Gd       0.00000000       0.00000000       0.00000000       0.00000000       0.00000000      -3.20066381
Gd       0.00000000       0.00000000       2.59030303       0.00000000       0.00000000       3.20066381
2
Properties=species:S:1:pos:R:3:forces:R:3 energy=-22.628997419844563 pbc="F F F"
Gd       0.00000000       0.00000000       0.00000000       0.00000000       0.00000000      -2.84993863
Gd       0.00000000       0.00000000       2.64909091       0.00000000       0.00000000       2.84993863
2
Properties=species:S:1:pos:R:3:forces:R:3 energy=-22.788175751052336 pbc="F F F"
Gd       0.00000000       0.00000000       0.00000000       0.00000000       0.00000000      -2.57012296
Gd       0.00000000       0.00000000       2.70787879       0.00000000       0.00000000       2.57012296
2
Properties=species:S:1:pos:R:3:forces:R:3 energy=-22.9312265964956 pbc="F F F"
Gd       0.00000000       0.00000000       0.00000000       0.00000000       0.00000000      -2.29539418
Gd       0.00000000       0.00000000       2.76666667       0.00000000       0.00000000       2.29539418
2
Properties=species:S:1:pos:R:3:forces:R:3 energy=-23.058081773452233 pbc="F F F"
Gd       0.00000000       0.00000000       0.00000000       0.00000000       0.00000000      -2.02225089
Gd       0.00000000       0.00000000       2.82545455       0.00000000       0.00000000       2.02225089
2
Properties=species:S:1:pos:R:3:forces:R:3 energy=-23.16939397561302 pbc="F F F"
Gd       0.00000000       0.00000000       0.00000000       0.00000000       0.00000000      -1.76900339
Gd       0.00000000       0.00000000       2.88424242       0.00000000       0.00000000       1.76900339
2
Properties=species:S:1:pos:R:3:forces:R:3 energy=-23.266592041842475 pbc="F F F"
Gd       0.00000000       0.00000000       0.00000000       0.00000000       0.00000000      -1.54193938
Gd       0.00000000       0.00000000       2.94303030       0.00000000       0.00000000       1.54193938
2
Properties=species:S:1:pos:R:3:forces:R:3 energy=-23.35109713092543 pbc="F F F"
Gd       0.00000000       0.00000000       0.00000000       0.00000000       0.00000000      -1.33570790
Gd       0.00000000       0.00000000       3.00181818       0.00000000       0.00000000       1.33570790
2
Properties=species:S:1:pos:R:3:forces:R:3 energy=-23.423950636528165 pbc="F F F"
Gd       0.00000000       0.00000000       0.00000000       0.00000000       0.00000000      -1.14576101
Gd       0.00000000       0.00000000       3.06060606       0.00000000       0.00000000       1.14576101
2
Properties=species:S:1:pos:R:3:forces:R:3 energy=-23.48620924911989 pbc="F F F"
Gd       0.00000000       0.00000000       0.00000000       0.00000000       0.00000000      -0.97613096
Gd       0.00000000       0.00000000       3.11939394       0.00000000       0.00000000       0.97613096
2
Properties=species:S:1:pos:R:3:forces:R:3 energy=-23.539169706329204 pbc="F F F"
Gd       0.00000000       0.00000000       0.00000000       0.00000000       0.00000000      -0.82905877
Gd       0.00000000       0.00000000       3.17818182       0.00000000       0.00000000       0.82905877
2
Properties=species:S:1:pos:R:3:forces:R:3 energy=-23.58403333400355 pbc="F F F"
Gd       0.00000000       0.00000000       0.00000000       0.00000000       0.00000000      -0.69960308
Gd       0.00000000       0.00000000       3.23696970       0.00000000       0.00000000       0.69960308
2
Properties=species:S:1:pos:R:3:forces:R:3 energy=-23.621667595951898 pbc="F F F"
Gd       0.00000000       0.00000000       0.00000000       0.00000000       0.00000000      -0.58263713
Gd       0.00000000       0.00000000       3.29575758       0.00000000       0.00000000       0.58263713
2
Properties=species:S:1:pos:R:3:forces:R:3 energy=-23.652752871090456 pbc="F F F"
Gd       0.00000000       0.00000000       0.00000000       0.00000000       0.00000000      -0.47683635
Gd       0.00000000       0.00000000       3.35454545       0.00000000       0.00000000       0.47683635
2
Properties=species:S:1:pos:R:3:forces:R:3 energy=-23.677967573965997 pbc="F F F"
Gd       0.00000000       0.00000000       0.00000000       0.00000000       0.00000000      -0.38301888
Gd       0.00000000       0.00000000       3.41333333       0.00000000       0.00000000       0.38301888
2
Properties=species:S:1:pos:R:3:forces:R:3 energy=-23.698003312174613 pbc="F F F"
Gd       0.00000000       0.00000000       0.00000000       0.00000000       0.00000000      -0.30018103
Gd       0.00000000       0.00000000       3.47212121       0.00000000       0.00000000       0.30018103
2
Properties=species:S:1:pos:R:3:forces:R:3 energy=-23.713400987427832 pbc="F F F"
Gd       0.00000000       0.00000000       0.00000000       0.00000000       0.00000000      -0.22444724
Gd       0.00000000       0.00000000       3.53090909       0.00000000       0.00000000       0.22444724
2
Properties=species:S:1:pos:R:3:forces:R:3 energy=-23.724457386154757 pbc="F F F"
Gd       0.00000000       0.00000000       0.00000000       0.00000000       0.00000000      -0.15207328
Gd       0.00000000       0.00000000       3.58969697       0.00000000       0.00000000       0.15207328
2
Properties=species:S:1:pos:R:3:forces:R:3 energy=-23.731322295891232 pbc="F F F"
Gd       0.00000000       0.00000000       0.00000000       0.00000000       0.00000000      -0.08189051
Gd       0.00000000       0.00000000       3.64848485       0.00000000       0.00000000       0.08189051
2
Properties=species:S:1:pos:R:3:forces:R:3 energy=-23.734147639604934 pbc="F F F"
Gd       0.00000000       0.00000000       0.00000000       0.00000000       0.00000000      -0.01488663
Gd       0.00000000       0.00000000       3.70727273       0.00000000       0.00000000       0.01488663
2
Properties=species:S:1:pos:R:3:forces:R:3 energy=-23.733165233494205 pbc="F F F"
Gd       0.00000000       0.00000000       0.00000000       0.00000000       0.00000000       0.04736286
Gd       0.00000000       0.00000000       3.76606061       0.00000000       0.00000000      -0.04736286
2
Properties=species:S:1:pos:R:3:forces:R:3 energy=-23.728694821863833 pbc="F F F"
Gd       0.00000000       0.00000000       0.00000000       0.00000000       0.00000000       0.10365570
Gd       0.00000000       0.00000000       3.82484848       0.00000000       0.00000000      -0.10365570
2
Properties=species:S:1:pos:R:3:forces:R:3 energy=-23.721109580122896 pbc="F F F"
Gd       0.00000000       0.00000000       0.00000000       0.00000000       0.00000000       0.15334314
Gd       0.00000000       0.00000000       3.88363636       0.00000000       0.00000000      -0.15334314
2
Properties=species:S:1:pos:R:3:forces:R:3 energy=-23.710800014544922 pbc="F F F"
Gd       0.00000000       0.00000000       0.00000000       0.00000000       0.00000000       0.19620335
Gd       0.00000000       0.00000000       3.94242424       0.00000000       0.00000000      -0.19620335
2
Properties=species:S:1:pos:R:3:forces:R:3 energy=-23.698170109556752 pbc="F F F"
Gd       0.00000000       0.00000000       0.00000000       0.00000000       0.00000000       0.23235184
Gd       0.00000000       0.00000000       4.00121212       0.00000000       0.00000000      -0.23235184
2
Properties=species:S:1:pos:R:3:forces:R:3 energy=-23.683605004182095 pbc="F F F"
Gd       0.00000000       0.00000000       0.00000000       0.00000000       0.00000000       0.26219490
Gd       0.00000000       0.00000000       4.06000000       0.00000000       0.00000000      -0.26219490
2
Properties=species:S:1:pos:R:3:forces:R:3 energy=-23.667457665943672 pbc="F F F"
Gd       0.00000000       0.00000000       0.00000000       0.00000000       0.00000000       0.28631234
Gd       0.00000000       0.00000000       4.11878788       0.00000000       0.00000000      -0.28631234
2
Properties=species:S:1:pos:R:3:forces:R:3 energy=-23.650045126851115 pbc="F F F"
Gd       0.00000000       0.00000000       0.00000000       0.00000000       0.00000000       0.30523738
Gd       0.00000000       0.00000000       4.17757576       0.00000000       0.00000000      -0.30523738
2
Properties=species:S:1:pos:R:3:forces:R:3 energy=-23.631663805546452 pbc="F F F"
Gd       0.00000000       0.00000000       0.00000000       0.00000000       0.00000000       0.31928799
Gd       0.00000000       0.00000000       4.23636364       0.00000000       0.00000000      -0.31928799
2
Properties=species:S:1:pos:R:3:forces:R:3 energy=-23.61259526102825 pbc="F F F"
Gd       0.00000000       0.00000000       0.00000000       0.00000000       0.00000000       0.32854998
Gd       0.00000000       0.00000000       4.29515152       0.00000000       0.00000000      -0.32854998
2
Properties=species:S:1:pos:R:3:forces:R:3 energy=-23.593127268521222 pbc="F F F"
Gd       0.00000000       0.00000000       0.00000000       0.00000000       0.00000000       0.33305156
Gd       0.00000000       0.00000000       4.35393939       0.00000000       0.00000000      -0.33305156
2
Properties=species:S:1:pos:R:3:forces:R:3 energy=-23.573528973258856 pbc="F F F"
Gd       0.00000000       0.00000000       0.00000000       0.00000000       0.00000000       0.33295855
Gd       0.00000000       0.00000000       4.41272727       0.00000000       0.00000000      -0.33295855
2
Properties=species:S:1:pos:R:3:forces:R:3 energy=-23.554060579282044 pbc="F F F"
Gd       0.00000000       0.00000000       0.00000000       0.00000000       0.00000000       0.32870516
Gd       0.00000000       0.00000000       4.47151515       0.00000000       0.00000000      -0.32870516
2
Properties=species:S:1:pos:R:3:forces:R:3 energy=-23.53494850955733 pbc="F F F"
Gd       0.00000000       0.00000000       0.00000000       0.00000000       0.00000000       0.32099086
Gd       0.00000000       0.00000000       4.53030303       0.00000000       0.00000000      -0.32099086
2
Properties=species:S:1:pos:R:3:forces:R:3 energy=-23.516370166194807 pbc="F F F"
Gd       0.00000000       0.00000000       0.00000000       0.00000000       0.00000000       0.31067690
Gd       0.00000000       0.00000000       4.58909091       0.00000000       0.00000000      -0.31067690
2
Properties=species:S:1:pos:R:3:forces:R:3 energy=-23.49845213714105 pbc="F F F"
Gd       0.00000000       0.00000000       0.00000000       0.00000000       0.00000000       0.29867285
Gd       0.00000000       0.00000000       4.64787879       0.00000000       0.00000000      -0.29867285
2
Properties=species:S:1:pos:R:3:forces:R:3 energy=-23.481270050459326 pbc="F F F"
Gd       0.00000000       0.00000000       0.00000000       0.00000000       0.00000000       0.28583163
Gd       0.00000000       0.00000000       4.70666667       0.00000000       0.00000000      -0.28583163
2
Properties=species:S:1:pos:R:3:forces:R:3 energy=-23.464848688371173 pbc="F F F"
Gd       0.00000000       0.00000000       0.00000000       0.00000000       0.00000000       0.27290615
Gd       0.00000000       0.00000000       4.76545455       0.00000000       0.00000000      -0.27290615
2
Properties=species:S:1:pos:R:3:forces:R:3 energy=-23.449171435300546 pbc="F F F"
Gd       0.00000000       0.00000000       0.00000000       0.00000000       0.00000000       0.26051301
Gd       0.00000000       0.00000000       4.82424242       0.00000000       0.00000000      -0.26051301
2
Properties=species:S:1:pos:R:3:forces:R:3 energy=-23.434197463018457 pbc="F F F"
Gd       0.00000000       0.00000000       0.00000000       0.00000000       0.00000000       0.24910721
Gd       0.00000000       0.00000000       4.88303030       0.00000000       0.00000000      -0.24910721
2
Properties=species:S:1:pos:R:3:forces:R:3 energy=-23.419861572251854 pbc="F F F"
Gd       0.00000000       0.00000000       0.00000000       0.00000000       0.00000000       0.23892742
Gd       0.00000000       0.00000000       4.94181818       0.00000000       0.00000000      -0.23892742
2
Properties=species:S:1:pos:R:3:forces:R:3 energy=-23.406081847420737 pbc="F F F"
Gd       0.00000000       0.00000000       0.00000000       0.00000000       0.00000000       0.22995511
Gd       0.00000000       0.00000000       5.00060606       0.00000000       0.00000000      -0.22995511
2
Properties=species:S:1:pos:R:3:forces:R:3 energy=-23.39280539499147 pbc="F F F"
Gd       0.00000000       0.00000000       0.00000000       0.00000000       0.00000000       0.22187303
Gd       0.00000000       0.00000000       5.05939394       0.00000000       0.00000000      -0.22187303
2
Properties=species:S:1:pos:R:3:forces:R:3 energy=-23.379989067249856 pbc="F F F"
Gd       0.00000000       0.00000000       0.00000000       0.00000000       0.00000000       0.21408880
Gd       0.00000000       0.00000000       5.11818182       0.00000000       0.00000000      -0.21408880
2
Properties=species:S:1:pos:R:3:forces:R:3 energy=-23.367643312312733 pbc="F F F"
Gd       0.00000000       0.00000000       0.00000000       0.00000000       0.00000000       0.20580418
Gd       0.00000000       0.00000000       5.17696970       0.00000000       0.00000000      -0.20580418
2
Properties=species:S:1:pos:R:3:forces:R:3 energy=-23.355820666679755 pbc="F F F"
Gd       0.00000000       0.00000000       0.00000000       0.00000000       0.00000000       0.19617033
Gd       0.00000000       0.00000000       5.23575758       0.00000000       0.00000000      -0.19617033
2
Properties=species:S:1:pos:R:3:forces:R:3 energy=-23.344619379861317 pbc="F F F"
Gd       0.00000000       0.00000000       0.00000000       0.00000000       0.00000000       0.18445915
Gd       0.00000000       0.00000000       5.29454545       0.00000000       0.00000000      -0.18445915
2
Properties=species:S:1:pos:R:3:forces:R:3 energy=-23.33417961235258 pbc="F F F"
Gd       0.00000000       0.00000000       0.00000000       0.00000000       0.00000000       0.17023741
Gd       0.00000000       0.00000000       5.35333333       0.00000000       0.00000000      -0.17023741
2
Properties=species:S:1:pos:R:3:forces:R:3 energy=-23.32465469235546 pbc="F F F"
Gd       0.00000000       0.00000000       0.00000000       0.00000000       0.00000000       0.15349121
Gd       0.00000000       0.00000000       5.41212121       0.00000000       0.00000000      -0.15349121
2
Properties=species:S:1:pos:R:3:forces:R:3 energy=-23.31617474310605 pbc="F F F"
Gd       0.00000000       0.00000000       0.00000000       0.00000000       0.00000000       0.13466002
Gd       0.00000000       0.00000000       5.47090909       0.00000000       0.00000000      -0.13466002
2
Properties=species:S:1:pos:R:3:forces:R:3 energy=-23.308842877680842 pbc="F F F"
Gd       0.00000000       0.00000000       0.00000000       0.00000000       0.00000000       0.11461709
Gd       0.00000000       0.00000000       5.52969697       0.00000000       0.00000000      -0.11461709
2
Properties=species:S:1:pos:R:3:forces:R:3 energy=-23.30270078752578 pbc="F F F"
Gd       0.00000000       0.00000000       0.00000000       0.00000000       0.00000000       0.09452197
Gd       0.00000000       0.00000000       5.58848485       0.00000000       0.00000000      -0.09452197
2
Properties=species:S:1:pos:R:3:forces:R:3 energy=-23.29770959294219 pbc="F F F"
Gd       0.00000000       0.00000000       0.00000000       0.00000000       0.00000000       0.07567165
Gd       0.00000000       0.00000000       5.64727273       0.00000000       0.00000000      -0.07567165
2
Properties=species:S:1:pos:R:3:forces:R:3 energy=-23.29375741546052 pbc="F F F"
Gd       0.00000000       0.00000000       0.00000000       0.00000000       0.00000000       0.05924791
Gd       0.00000000       0.00000000       5.70606061       0.00000000       0.00000000      -0.05924791
2
Properties=species:S:1:pos:R:3:forces:R:3 energy=-23.29067088212076 pbc="F F F"
Gd       0.00000000       0.00000000       0.00000000       0.00000000       0.00000000       0.04614593
Gd       0.00000000       0.00000000       5.76484848       0.00000000       0.00000000      -0.04614593
2
Properties=species:S:1:pos:R:3:forces:R:3 energy=-23.288255113269457 pbc="F F F"
Gd       0.00000000       0.00000000       0.00000000       0.00000000       0.00000000       0.03681833
Gd       0.00000000       0.00000000       5.82363636       0.00000000       0.00000000      -0.03681833
2
Properties=species:S:1:pos:R:3:forces:R:3 energy=-23.286276512072526 pbc="F F F"
Gd       0.00000000       0.00000000       0.00000000       0.00000000       0.00000000       0.03111759
Gd       0.00000000       0.00000000       5.88242424       0.00000000       0.00000000      -0.03111759
2
Properties=species:S:1:pos:R:3:forces:R:3 energy=-23.284537258817856 pbc="F F F"
Gd       0.00000000       0.00000000       0.00000000       0.00000000       0.00000000       0.02829902
Gd       0.00000000       0.00000000       5.94121212       0.00000000       0.00000000      -0.02829902
2
Properties=species:S:1:pos:R:3:forces:R:3 energy=-23.28291147451163 pbc="F F F"
Gd       0.00000000       0.00000000       0.00000000       0.00000000       0.00000000       0.02710294
Gd       0.00000000       0.00000000       6.00000000       0.00000000       0.00000000      -0.02710294
