2
Properties=species:S:1:pos:R:3:forces:R:3 energy=-2107471.793714938 pbc="F F F"
Ge       0.00000000       0.00000000       0.00000000       0.00000000       0.00000000 18584046.00000000
Ge       0.00000000       0.00000000       0.18000000       0.00000000       0.00000000 -18584046.00000000
2
Properties=species:S:1:pos:R:3:forces:R:3 energy=-1146619.6687149382 pbc="F F F"
Ge       0.00000000       0.00000000       0.00000000       0.00000000       0.00000000 13649801.00000000
Ge       0.00000000       0.00000000       0.23878788       0.00000000       0.00000000 -13649801.00000000
2
Properties=species:S:1:pos:R:3:forces:R:3 energy=-511612.6374649383 pbc="F F F"
Ge       0.00000000       0.00000000       0.00000000       0.00000000       0.00000000 7956157.00000000
Ge       0.00000000       0.00000000       0.29757576       0.00000000       0.00000000 -7956157.00000000
2
Properties=species:S:1:pos:R:3:forces:R:3 energy=-179600.6530899351 pbc="F F F"
Ge       0.00000000       0.00000000       0.00000000       0.00000000       0.00000000 3488179.00000000
Ge       0.00000000       0.00000000       0.35636364       0.00000000       0.00000000 -3488179.00000000
2
Properties=species:S:1:pos:R:3:forces:R:3 energy=-55049.0749649256 pbc="F F F"
Ge       0.00000000       0.00000000       0.00000000       0.00000000       0.00000000 1150925.37500000
Ge       0.00000000       0.00000000       0.41515152       0.00000000       0.00000000 -1150925.37500000
2
Properties=species:S:1:pos:R:3:forces:R:3 energy=-5528.976820378514 pbc="F F F"
Ge       0.00000000       0.00000000       0.00000000       0.00000000       0.00000000  271684.37500000
Ge       0.00000000       0.00000000       0.47393939       0.00000000       0.00000000 -271684.37500000
2
Properties=species:S:1:pos:R:3:forces:R:3 energy=338.63160860507463 pbc="F F F"
Ge       0.00000000       0.00000000       0.00000000       0.00000000       0.00000000   11423.58886719
Ge       0.00000000       0.00000000       0.53272727       0.00000000       0.00000000  -11423.58886719
2
Properties=species:S:1:pos:R:3:forces:R:3 energy=399.09001319677543 pbc="F F F"
Ge       0.00000000       0.00000000       0.00000000       0.00000000       0.00000000   -2508.14477539
Ge       0.00000000       0.00000000       0.59151515       0.00000000       0.00000000    2508.14477539
2
Properties=species:S:1:pos:R:3:forces:R:3 energy=257.7801988323494 pbc="F F F"
Ge       0.00000000       0.00000000       0.00000000       0.00000000       0.00000000   -2159.91674805
Ge       0.00000000       0.00000000       0.65030303       0.00000000       0.00000000    2159.91674805
2
Properties=species:S:1:pos:R:3:forces:R:3 energy=158.60916319879638 pbc="F F F"
Ge       0.00000000       0.00000000       0.00000000       0.00000000       0.00000000   -1255.68212891
Ge       0.00000000       0.00000000       0.70909091       0.00000000       0.00000000    1255.68212891
2
Properties=species:S:1:pos:R:3:forces:R:3 energy=101.88362324357202 pbc="F F F"
Ge       0.00000000       0.00000000       0.00000000       0.00000000       0.00000000    -701.44091797
Ge       0.00000000       0.00000000       0.76787879       0.00000000       0.00000000     701.44091797
2
Properties=species:S:1:pos:R:3:forces:R:3 energy=72.10370106233138 pbc="F F F"
Ge       0.00000000       0.00000000       0.00000000       0.00000000       0.00000000    -320.80084229
Ge       0.00000000       0.00000000       0.82666667       0.00000000       0.00000000     320.80084229
2
Properties=species:S:1:pos:R:3:forces:R:3 energy=57.91598405857888 pbc="F F F"
Ge       0.00000000       0.00000000       0.00000000       0.00000000       0.00000000    -167.53465271
Ge       0.00000000       0.00000000       0.88545455       0.00000000       0.00000000     167.53465271
2
Properties=species:S:1:pos:R:3:forces:R:3 energy=49.08791688725971 pbc="F F F"
Ge       0.00000000       0.00000000       0.00000000       0.00000000       0.00000000    -155.40093994
Ge       0.00000000       0.00000000       0.94424242       0.00000000       0.00000000     155.40093994
2
Properties=species:S:1:pos:R:3:forces:R:3 energy=39.84700814714874 pbc="F F F"
Ge       0.00000000       0.00000000       0.00000000       0.00000000       0.00000000    -158.16468811
Ge       0.00000000       0.00000000       1.00303030       0.00000000       0.00000000     158.16468811
2
Properties=species:S:1:pos:R:3:forces:R:3 energy=31.685796356918672 pbc="F F F"
Ge       0.00000000       0.00000000       0.00000000       0.00000000       0.00000000    -120.95070648
Ge       0.00000000       0.00000000       1.06181818       0.00000000       0.00000000     120.95070648
2
Properties=species:S:1:pos:R:3:forces:R:3 energy=26.544959232251674 pbc="F F F"
Ge       0.00000000       0.00000000       0.00000000       0.00000000       0.00000000     -36.39359665
Ge       0.00000000       0.00000000       1.12060606       0.00000000       0.00000000      36.39359665
2
Properties=species:S:1:pos:R:3:forces:R:3 energy=25.975033983893056 pbc="F F F"
Ge       0.00000000       0.00000000       0.00000000       0.00000000       0.00000000     -10.39679813
Ge       0.00000000       0.00000000       1.17939394       0.00000000       0.00000000      10.39679813
2
Properties=species:S:1:pos:R:3:forces:R:3 energy=24.57883824861352 pbc="F F F"
Ge       0.00000000       0.00000000       0.00000000       0.00000000       0.00000000     -35.50830078
Ge       0.00000000       0.00000000       1.23818182       0.00000000       0.00000000      35.50830078
2
Properties=species:S:1:pos:R:3:forces:R:3 energy=21.934237769550993 pbc="F F F"
Ge       0.00000000       0.00000000       0.00000000       0.00000000       0.00000000     -49.18697739
Ge       0.00000000       0.00000000       1.29696970       0.00000000       0.00000000      49.18697739
2
Properties=species:S:1:pos:R:3:forces:R:3 energy=18.776332488073596 pbc="F F F"
Ge       0.00000000       0.00000000       0.00000000       0.00000000       0.00000000     -58.33290482
Ge       0.00000000       0.00000000       1.35575758       0.00000000       0.00000000      58.33290482
2
Properties=species:S:1:pos:R:3:forces:R:3 energy=15.200712216167886 pbc="F F F"
Ge       0.00000000       0.00000000       0.00000000       0.00000000       0.00000000     -61.25867844
Ge       0.00000000       0.00000000       1.41454545       0.00000000       0.00000000      61.25867844
2
Properties=species:S:1:pos:R:3:forces:R:3 energy=11.62058326654182 pbc="F F F"
Ge       0.00000000       0.00000000       0.00000000       0.00000000       0.00000000     -60.41292572
Ge       0.00000000       0.00000000       1.47333333       0.00000000       0.00000000      60.41292572
2
Properties=species:S:1:pos:R:3:forces:R:3 energy=8.148655875866526 pbc="F F F"
Ge       0.00000000       0.00000000       0.00000000       0.00000000       0.00000000     -56.51401901
Ge       0.00000000       0.00000000       1.53212121       0.00000000       0.00000000      56.51401901
2
Properties=species:S:1:pos:R:3:forces:R:3 energy=5.136335460312506 pbc="F F F"
Ge       0.00000000       0.00000000       0.00000000       0.00000000       0.00000000     -45.62960434
Ge       0.00000000       0.00000000       1.59090909       0.00000000       0.00000000      45.62960434
2
Properties=species:S:1:pos:R:3:forces:R:3 energy=2.742000925064904 pbc="F F F"
Ge       0.00000000       0.00000000       0.00000000       0.00000000       0.00000000     -35.97260284
Ge       0.00000000       0.00000000       1.64969697       0.00000000       0.00000000      35.97260284
2
Properties=species:S:1:pos:R:3:forces:R:3 energy=0.8704902079146243 pbc="F F F"
Ge       0.00000000       0.00000000       0.00000000       0.00000000       0.00000000     -27.93943214
Ge       0.00000000       0.00000000       1.70848485       0.00000000       0.00000000      27.93943214
2
Properties=species:S:1:pos:R:3:forces:R:3 energy=-0.5872975494500668 pbc="F F F"
Ge       0.00000000       0.00000000       0.00000000       0.00000000       0.00000000     -22.28481293
Ge       0.00000000       0.00000000       1.76727273       0.00000000       0.00000000      22.28481293
2
Properties=species:S:1:pos:R:3:forces:R:3 energy=-1.7880044070395351 pbc="F F F"
Ge       0.00000000       0.00000000       0.00000000       0.00000000       0.00000000     -18.38184929
Ge       0.00000000       0.00000000       1.82606061       0.00000000       0.00000000      18.38184929
2
Properties=species:S:1:pos:R:3:forces:R:3 energy=-2.7224050011856833 pbc="F F F"
Ge       0.00000000       0.00000000       0.00000000       0.00000000       0.00000000     -13.62951088
Ge       0.00000000       0.00000000       1.88484848       0.00000000       0.00000000      13.62951088
2
Properties=species:S:1:pos:R:3:forces:R:3 energy=-3.416781157697562 pbc="F F F"
Ge       0.00000000       0.00000000       0.00000000       0.00000000       0.00000000     -10.08022881
Ge       0.00000000       0.00000000       1.94363636       0.00000000       0.00000000      10.08022881
2
Properties=species:S:1:pos:R:3:forces:R:3 energy=-3.9265074847448673 pbc="F F F"
Ge       0.00000000       0.00000000       0.00000000       0.00000000       0.00000000      -7.44156361
Ge       0.00000000       0.00000000       2.00242424       0.00000000       0.00000000       7.44156361
2
Properties=species:S:1:pos:R:3:forces:R:3 energy=-4.30009697348284 pbc="F F F"
Ge       0.00000000       0.00000000       0.00000000       0.00000000       0.00000000      -5.31504059
Ge       0.00000000       0.00000000       2.06121212       0.00000000       0.00000000       5.31504059
2
Properties=species:S:1:pos:R:3:forces:R:3 energy=-4.563160625370137 pbc="F F F"
Ge       0.00000000       0.00000000       0.00000000       0.00000000       0.00000000      -3.70756507
Ge       0.00000000       0.00000000       2.12000000       0.00000000       0.00000000       3.70756507
2
Properties=species:S:1:pos:R:3:forces:R:3 energy=-4.741767398774442 pbc="F F F"
Ge       0.00000000       0.00000000       0.00000000       0.00000000       0.00000000      -2.43773794
Ge       0.00000000       0.00000000       2.17878788       0.00000000       0.00000000       2.43773794
2
Properties=species:S:1:pos:R:3:forces:R:3 energy=-4.85568361174346 pbc="F F F"
Ge       0.00000000       0.00000000       0.00000000       0.00000000       0.00000000      -1.45605671
Ge       0.00000000       0.00000000       2.23757576       0.00000000       0.00000000       1.45605671
2
Properties=species:S:1:pos:R:3:forces:R:3 energy=-4.915828684648567 pbc="F F F"
Ge       0.00000000       0.00000000       0.00000000       0.00000000       0.00000000      -0.62121725
Ge       0.00000000       0.00000000       2.29636364       0.00000000       0.00000000       0.62121725
2
Properties=species:S:1:pos:R:3:forces:R:3 energy=-4.932553156796274 pbc="F F F"
Ge       0.00000000       0.00000000       0.00000000       0.00000000       0.00000000       0.01712279
Ge       0.00000000       0.00000000       2.35515152       0.00000000       0.00000000      -0.01712279
2
Properties=species:S:1:pos:R:3:forces:R:3 energy=-4.916602554890828 pbc="F F F"
Ge       0.00000000       0.00000000       0.00000000       0.00000000       0.00000000       0.51929331
Ge       0.00000000       0.00000000       2.41393939       0.00000000       0.00000000      -0.51929331
2
Properties=species:S:1:pos:R:3:forces:R:3 energy=-4.872070119974616 pbc="F F F"
Ge       0.00000000       0.00000000       0.00000000       0.00000000       0.00000000       0.98168612
Ge       0.00000000       0.00000000       2.47272727       0.00000000       0.00000000      -0.98168612
2
Properties=species:S:1:pos:R:3:forces:R:3 energy=-4.803268574079453 pbc="F F F"
Ge       0.00000000       0.00000000       0.00000000       0.00000000       0.00000000       1.34386933
Ge       0.00000000       0.00000000       2.53151515       0.00000000       0.00000000      -1.34386933
2
Properties=species:S:1:pos:R:3:forces:R:3 energy=-4.715669210180344 pbc="F F F"
Ge       0.00000000       0.00000000       0.00000000       0.00000000       0.00000000       1.62246311
Ge       0.00000000       0.00000000       2.59030303       0.00000000       0.00000000      -1.62246311
2
Properties=species:S:1:pos:R:3:forces:R:3 energy=-4.613959239310763 pbc="F F F"
Ge       0.00000000       0.00000000       0.00000000       0.00000000       0.00000000       1.82784557
Ge       0.00000000       0.00000000       2.64909091       0.00000000       0.00000000      -1.82784557
2
Properties=species:S:1:pos:R:3:forces:R:3 energy=-4.501739956034522 pbc="F F F"
Ge       0.00000000       0.00000000       0.00000000       0.00000000       0.00000000       1.98201895
Ge       0.00000000       0.00000000       2.70787879       0.00000000       0.00000000      -1.98201895
2
Properties=species:S:1:pos:R:3:forces:R:3 energy=-4.381904940709055 pbc="F F F"
Ge       0.00000000       0.00000000       0.00000000       0.00000000       0.00000000       2.08620334
Ge       0.00000000       0.00000000       2.76666667       0.00000000       0.00000000      -2.08620334
2
Properties=species:S:1:pos:R:3:forces:R:3 energy=-4.257444786247563 pbc="F F F"
Ge       0.00000000       0.00000000       0.00000000       0.00000000       0.00000000       2.13985872
Ge       0.00000000       0.00000000       2.82545455       0.00000000       0.00000000      -2.13985872
2
Properties=species:S:1:pos:R:3:forces:R:3 energy=-4.131219797528074 pbc="F F F"
Ge       0.00000000       0.00000000       0.00000000       0.00000000       0.00000000       2.14719057
Ge       0.00000000       0.00000000       2.88424242       0.00000000       0.00000000      -2.14719057
2
Properties=species:S:1:pos:R:3:forces:R:3 energy=-4.005720046106101 pbc="F F F"
Ge       0.00000000       0.00000000       0.00000000       0.00000000       0.00000000       2.11742663
Ge       0.00000000       0.00000000       2.94303030       0.00000000       0.00000000      -2.11742663
2
Properties=species:S:1:pos:R:3:forces:R:3 energy=-3.8826711357119628 pbc="F F F"
Ge       0.00000000       0.00000000       0.00000000       0.00000000       0.00000000       2.06668520
Ge       0.00000000       0.00000000       3.00181818       0.00000000       0.00000000      -2.06668520
2
Properties=species:S:1:pos:R:3:forces:R:3 energy=-3.762887585406159 pbc="F F F"
Ge       0.00000000       0.00000000       0.00000000       0.00000000       0.00000000       2.00722218
Ge       0.00000000       0.00000000       3.06060606       0.00000000       0.00000000      -2.00722218
2
Properties=species:S:1:pos:R:3:forces:R:3 energy=-3.646866775702699 pbc="F F F"
Ge       0.00000000       0.00000000       0.00000000       0.00000000       0.00000000       1.93769383
Ge       0.00000000       0.00000000       3.11939394       0.00000000       0.00000000      -1.93769383
2
Properties=species:S:1:pos:R:3:forces:R:3 energy=-3.5353458895604075 pbc="F F F"
Ge       0.00000000       0.00000000       0.00000000       0.00000000       0.00000000       1.85399687
Ge       0.00000000       0.00000000       3.17818182       0.00000000       0.00000000      -1.85399687
2
Properties=species:S:1:pos:R:3:forces:R:3 energy=-3.4291081067087115 pbc="F F F"
Ge       0.00000000       0.00000000       0.00000000       0.00000000       0.00000000       1.75870299
Ge       0.00000000       0.00000000       3.23696970       0.00000000       0.00000000      -1.75870299
2
Properties=species:S:1:pos:R:3:forces:R:3 energy=-3.328705155007414 pbc="F F F"
Ge       0.00000000       0.00000000       0.00000000       0.00000000       0.00000000       1.65615845
Ge       0.00000000       0.00000000       3.29575758       0.00000000       0.00000000      -1.65615845
2
Properties=species:S:1:pos:R:3:forces:R:3 energy=-3.234472944382907 pbc="F F F"
Ge       0.00000000       0.00000000       0.00000000       0.00000000       0.00000000       1.54910159
Ge       0.00000000       0.00000000       3.35454545       0.00000000       0.00000000      -1.54910159
2
Properties=species:S:1:pos:R:3:forces:R:3 energy=-3.146621995530571 pbc="F F F"
Ge       0.00000000       0.00000000       0.00000000       0.00000000       0.00000000       1.43927360
Ge       0.00000000       0.00000000       3.41333333       0.00000000       0.00000000      -1.43927360
2
Properties=species:S:1:pos:R:3:forces:R:3 energy=-3.0652602324243046 pbc="F F F"
Ge       0.00000000       0.00000000       0.00000000       0.00000000       0.00000000       1.32891273
Ge       0.00000000       0.00000000       3.47212121       0.00000000       0.00000000      -1.32891273
2
Properties=species:S:1:pos:R:3:forces:R:3 energy=-2.990327195812089 pbc="F F F"
Ge       0.00000000       0.00000000       0.00000000       0.00000000       0.00000000       1.22103143
Ge       0.00000000       0.00000000       3.53090909       0.00000000       0.00000000      -1.22103143
2
Properties=species:S:1:pos:R:3:forces:R:3 energy=-2.921601702465056 pbc="F F F"
Ge       0.00000000       0.00000000       0.00000000       0.00000000       0.00000000       1.11793625
Ge       0.00000000       0.00000000       3.58969697       0.00000000       0.00000000      -1.11793625
2
Properties=species:S:1:pos:R:3:forces:R:3 energy=-2.8587736003383974 pbc="F F F"
Ge       0.00000000       0.00000000       0.00000000       0.00000000       0.00000000       1.02043772
Ge       0.00000000       0.00000000       3.64848485       0.00000000       0.00000000      -1.02043772
2
Properties=species:S:1:pos:R:3:forces:R:3 energy=-2.8015111466666576 pbc="F F F"
Ge       0.00000000       0.00000000       0.00000000       0.00000000       0.00000000       0.92868292
Ge       0.00000000       0.00000000       3.70727273       0.00000000       0.00000000      -0.92868292
2
Properties=species:S:1:pos:R:3:forces:R:3 energy=-2.7494621580430185 pbc="F F F"
Ge       0.00000000       0.00000000       0.00000000       0.00000000       0.00000000       0.84310782
Ge       0.00000000       0.00000000       3.76606061       0.00000000       0.00000000      -0.84310782
2
Properties=species:S:1:pos:R:3:forces:R:3 energy=-2.7022456522658302 pbc="F F F"
Ge       0.00000000       0.00000000       0.00000000       0.00000000       0.00000000       0.76445627
Ge       0.00000000       0.00000000       3.82484848       0.00000000       0.00000000      -0.76445627
2
Properties=species:S:1:pos:R:3:forces:R:3 energy=-2.6594343225731714 pbc="F F F"
Ge       0.00000000       0.00000000       0.00000000       0.00000000       0.00000000       0.69322246
Ge       0.00000000       0.00000000       3.88363636       0.00000000       0.00000000      -0.69322246
2
Properties=species:S:1:pos:R:3:forces:R:3 energy=-2.620596054153838 pbc="F F F"
Ge       0.00000000       0.00000000       0.00000000       0.00000000       0.00000000       0.62925404
Ge       0.00000000       0.00000000       3.94242424       0.00000000       0.00000000      -0.62925404
2
Properties=species:S:1:pos:R:3:forces:R:3 energy=-2.5853240029021745 pbc="F F F"
Ge       0.00000000       0.00000000       0.00000000       0.00000000       0.00000000       0.57178420
Ge       0.00000000       0.00000000       4.00121212       0.00000000       0.00000000      -0.57178420
2
Properties=species:S:1:pos:R:3:forces:R:3 energy=-2.5532613561042568 pbc="F F F"
Ge       0.00000000       0.00000000       0.00000000       0.00000000       0.00000000       0.51978725
Ge       0.00000000       0.00000000       4.06000000       0.00000000       0.00000000      -0.51978725
2
Properties=species:S:1:pos:R:3:forces:R:3 energy=-2.5241189500701697 pbc="F F F"
Ge       0.00000000       0.00000000       0.00000000       0.00000000       0.00000000       0.47236550
Ge       0.00000000       0.00000000       4.11878788       0.00000000       0.00000000      -0.47236550
2
Properties=species:S:1:pos:R:3:forces:R:3 energy=-2.4976432491844966 pbc="F F F"
Ge       0.00000000       0.00000000       0.00000000       0.00000000       0.00000000       0.42894921
Ge       0.00000000       0.00000000       4.17757576       0.00000000       0.00000000      -0.42894921
2
Properties=species:S:1:pos:R:3:forces:R:3 energy=-2.4736105510005113 pbc="F F F"
Ge       0.00000000       0.00000000       0.00000000       0.00000000       0.00000000       0.38930041
Ge       0.00000000       0.00000000       4.23636364       0.00000000       0.00000000      -0.38930041
2
Properties=species:S:1:pos:R:3:forces:R:3 energy=-2.4517992473216275 pbc="F F F"
Ge       0.00000000       0.00000000       0.00000000       0.00000000       0.00000000       0.35337299
Ge       0.00000000       0.00000000       4.29515152       0.00000000       0.00000000      -0.35337299
2
Properties=species:S:1:pos:R:3:forces:R:3 energy=-2.431990676505407 pbc="F F F"
Ge       0.00000000       0.00000000       0.00000000       0.00000000       0.00000000       0.32114792
Ge       0.00000000       0.00000000       4.35393939       0.00000000       0.00000000      -0.32114792
2
Properties=species:S:1:pos:R:3:forces:R:3 energy=-2.413969931418056 pbc="F F F"
Ge       0.00000000       0.00000000       0.00000000       0.00000000       0.00000000       0.29249647
Ge       0.00000000       0.00000000       4.41272727       0.00000000       0.00000000      -0.29249647
2
Properties=species:S:1:pos:R:3:forces:R:3 energy=-2.397534876574831 pbc="F F F"
Ge       0.00000000       0.00000000       0.00000000       0.00000000       0.00000000       0.26714075
Ge       0.00000000       0.00000000       4.47151515       0.00000000       0.00000000      -0.26714075
2
Properties=species:S:1:pos:R:3:forces:R:3 energy=-2.382506047678768 pbc="F F F"
Ge       0.00000000       0.00000000       0.00000000       0.00000000       0.00000000       0.24466607
Ge       0.00000000       0.00000000       4.53030303       0.00000000       0.00000000      -0.24466607
2
Properties=species:S:1:pos:R:3:forces:R:3 energy=-2.3687217644557634 pbc="F F F"
Ge       0.00000000       0.00000000       0.00000000       0.00000000       0.00000000       0.22459088
Ge       0.00000000       0.00000000       4.58909091       0.00000000       0.00000000      -0.22459088
2
Properties=species:S:1:pos:R:3:forces:R:3 energy=-2.356060084170791 pbc="F F F"
Ge       0.00000000       0.00000000       0.00000000       0.00000000       0.00000000       0.20647050
Ge       0.00000000       0.00000000       4.64787879       0.00000000       0.00000000      -0.20647050
2
Properties=species:S:1:pos:R:3:forces:R:3 energy=-2.3444128639359363 pbc="F F F"
Ge       0.00000000       0.00000000       0.00000000       0.00000000       0.00000000       0.18997276
Ge       0.00000000       0.00000000       4.70666667       0.00000000       0.00000000      -0.18997276
2
Properties=species:S:1:pos:R:3:forces:R:3 energy=-2.3336953909043165 pbc="F F F"
Ge       0.00000000       0.00000000       0.00000000       0.00000000       0.00000000       0.17494082
Ge       0.00000000       0.00000000       4.76545455       0.00000000       0.00000000      -0.17494082
2
Properties=species:S:1:pos:R:3:forces:R:3 energy=-2.3238152785649326 pbc="F F F"
Ge       0.00000000       0.00000000       0.00000000       0.00000000       0.00000000       0.16139522
Ge       0.00000000       0.00000000       4.82424242       0.00000000       0.00000000      -0.16139522
2
Properties=species:S:1:pos:R:3:forces:R:3 energy=-2.3146873009636377 pbc="F F F"
Ge       0.00000000       0.00000000       0.00000000       0.00000000       0.00000000       0.14947943
Ge       0.00000000       0.00000000       4.88303030       0.00000000       0.00000000      -0.14947943
2
Properties=species:S:1:pos:R:3:forces:R:3 energy=-2.306204248615691 pbc="F F F"
Ge       0.00000000       0.00000000       0.00000000       0.00000000       0.00000000       0.13935959
Ge       0.00000000       0.00000000       4.94181818       0.00000000       0.00000000      -0.13935959
2
Properties=species:S:1:pos:R:3:forces:R:3 energy=-2.298265112583242 pbc="F F F"
Ge       0.00000000       0.00000000       0.00000000       0.00000000       0.00000000       0.13109906
Ge       0.00000000       0.00000000       5.00060606       0.00000000       0.00000000      -0.13109906
2
Properties=species:S:1:pos:R:3:forces:R:3 energy=-2.290757500105192 pbc="F F F"
Ge       0.00000000       0.00000000       0.00000000       0.00000000       0.00000000       0.12455066
Ge       0.00000000       0.00000000       5.05939394       0.00000000       0.00000000      -0.12455066
2
Properties=species:S:1:pos:R:3:forces:R:3 energy=-2.283595280974021 pbc="F F F"
Ge       0.00000000       0.00000000       0.00000000       0.00000000       0.00000000       0.11929777
Ge       0.00000000       0.00000000       5.11818182       0.00000000       0.00000000      -0.11929777
2
Properties=species:S:1:pos:R:3:forces:R:3 energy=-2.2767186508922332 pbc="F F F"
Ge       0.00000000       0.00000000       0.00000000       0.00000000       0.00000000       0.11467827
Ge       0.00000000       0.00000000       5.17696970       0.00000000       0.00000000      -0.11467827
2
Properties=species:S:1:pos:R:3:forces:R:3 energy=-2.2701156556687407 pbc="F F F"
Ge       0.00000000       0.00000000       0.00000000       0.00000000       0.00000000       0.10988213
Ge       0.00000000       0.00000000       5.23575758       0.00000000       0.00000000      -0.10988213
2
Properties=species:S:1:pos:R:3:forces:R:3 energy=-2.263819801489385 pbc="F F F"
Ge       0.00000000       0.00000000       0.00000000       0.00000000       0.00000000       0.10410397
Ge       0.00000000       0.00000000       5.29454545       0.00000000       0.00000000      -0.10410397
2
Properties=species:S:1:pos:R:3:forces:R:3 energy=-2.2579058504976195 pbc="F F F"
Ge       0.00000000       0.00000000       0.00000000       0.00000000       0.00000000       0.09672238
Ge       0.00000000       0.00000000       5.35333333       0.00000000       0.00000000      -0.09672238
2
Properties=species:S:1:pos:R:3:forces:R:3 energy=-2.2524841201314127 pbc="F F F"
Ge       0.00000000       0.00000000       0.00000000       0.00000000       0.00000000       0.08743259
Ge       0.00000000       0.00000000       5.41212121       0.00000000       0.00000000      -0.08743259
2
Properties=species:S:1:pos:R:3:forces:R:3 energy=-2.2476628335785946 pbc="F F F"
Ge       0.00000000       0.00000000       0.00000000       0.00000000       0.00000000       0.07633795
Ge       0.00000000       0.00000000       5.47090909       0.00000000       0.00000000      -0.07633795
2
Properties=species:S:1:pos:R:3:forces:R:3 energy=-2.243533407517037 pbc="F F F"
Ge       0.00000000       0.00000000       0.00000000       0.00000000       0.00000000       0.06393620
Ge       0.00000000       0.00000000       5.52969697       0.00000000       0.00000000      -0.06393620
2
Properties=species:S:1:pos:R:3:forces:R:3 energy=-2.24015378023714 pbc="F F F"
Ge       0.00000000       0.00000000       0.00000000       0.00000000       0.00000000       0.05103030
Ge       0.00000000       0.00000000       5.58848485       0.00000000       0.00000000      -0.05103030
2
Properties=species:S:1:pos:R:3:forces:R:3 energy=-2.2375264882199337 pbc="F F F"
Ge       0.00000000       0.00000000       0.00000000       0.00000000       0.00000000       0.03859112
Ge       0.00000000       0.00000000       5.64727273       0.00000000       0.00000000      -0.03859112
2
Properties=species:S:1:pos:R:3:forces:R:3 energy=-2.235590604254895 pbc="F F F"
Ge       0.00000000       0.00000000       0.00000000       0.00000000       0.00000000       0.02755076
Ge       0.00000000       0.00000000       5.70606061       0.00000000       0.00000000      -0.02755076
2
Properties=species:S:1:pos:R:3:forces:R:3 energy=-2.23424322362247 pbc="F F F"
Ge       0.00000000       0.00000000       0.00000000       0.00000000       0.00000000       0.01865575
Ge       0.00000000       0.00000000       5.76484848       0.00000000       0.00000000      -0.01865575
2
Properties=species:S:1:pos:R:3:forces:R:3 energy=-2.233344702175211 pbc="F F F"
Ge       0.00000000       0.00000000       0.00000000       0.00000000       0.00000000       0.01232119
Ge       0.00000000       0.00000000       5.82363636       0.00000000       0.00000000      -0.01232119
2
Properties=species:S:1:pos:R:3:forces:R:3 energy=-2.232746821408335 pbc="F F F"
Ge       0.00000000       0.00000000       0.00000000       0.00000000       0.00000000       0.00851463
Ge       0.00000000       0.00000000       5.88242424       0.00000000       0.00000000      -0.00851463
2
Properties=species:S:1:pos:R:3:forces:R:3 energy=-2.2323042452228057 pbc="F F F"
Ge       0.00000000       0.00000000       0.00000000       0.00000000       0.00000000       0.00675108
Ge       0.00000000       0.00000000       5.94121212       0.00000000       0.00000000      -0.00675108
2
Properties=species:S:1:pos:R:3:forces:R:3 energy=-2.231929353822665 pbc="F F F"
Ge       0.00000000       0.00000000       0.00000000       0.00000000       0.00000000       0.00616144
Ge       0.00000000       0.00000000       6.00000000       0.00000000       0.00000000      -0.00616144
