2
Properties=species:S:1:pos:R:3:forces:R:3 energy=106439.03520234473 pbc="F F F"
In       0.00000000       0.00000000       0.00000000       0.00000000       0.00000000 -2050942.75000000
In       0.00000000       0.00000000       0.18000000       0.00000000       0.00000000 2050942.75000000
2
Properties=species:S:1:pos:R:3:forces:R:3 energy=27053.712936719727 pbc="F F F"
In       0.00000000       0.00000000       0.00000000       0.00000000       0.00000000 -763173.25000000
In       0.00000000       0.00000000       0.23878788       0.00000000       0.00000000  763173.25000000
2
Properties=species:S:1:pos:R:3:forces:R:3 energy=1937.6708224619156 pbc="F F F"
In       0.00000000       0.00000000       0.00000000       0.00000000       0.00000000  -90945.72656250
In       0.00000000       0.00000000       0.29757576       0.00000000       0.00000000   90945.72656250
2
Properties=species:S:1:pos:R:3:forces:R:3 energy=92.88539918310688 pbc="F F F"
In       0.00000000       0.00000000       0.00000000       0.00000000       0.00000000    -593.22351074
In       0.00000000       0.00000000       0.35636364       0.00000000       0.00000000     593.22351074
2
Properties=species:S:1:pos:R:3:forces:R:3 energy=62.091999378651515 pbc="F F F"
In       0.00000000       0.00000000       0.00000000       0.00000000       0.00000000    -464.48028564
In       0.00000000       0.00000000       0.41515152       0.00000000       0.00000000     464.48028564
2
Properties=species:S:1:pos:R:3:forces:R:3 energy=-10.069717076194483 pbc="F F F"
In       0.00000000       0.00000000       0.00000000       0.00000000       0.00000000     377.20681763
In       0.00000000       0.00000000       0.47393939       0.00000000       0.00000000    -377.20681763
2
Properties=species:S:1:pos:R:3:forces:R:3 energy=69.73563419696885 pbc="F F F"
In       0.00000000       0.00000000       0.00000000       0.00000000       0.00000000    1905.34497070
In       0.00000000       0.00000000       0.53272727       0.00000000       0.00000000   -1905.34497070
2
Properties=species:S:1:pos:R:3:forces:R:3 energy=117.17382849721376 pbc="F F F"
In       0.00000000       0.00000000       0.00000000       0.00000000       0.00000000     156.45591736
In       0.00000000       0.00000000       0.59151515       0.00000000       0.00000000    -156.45591736
2
Properties=species:S:1:pos:R:3:forces:R:3 energy=111.71778911285234 pbc="F F F"
In       0.00000000       0.00000000       0.00000000       0.00000000       0.00000000    -191.12084961
In       0.00000000       0.00000000       0.65030303       0.00000000       0.00000000     191.12084961
2
Properties=species:S:1:pos:R:3:forces:R:3 energy=85.71081591277505 pbc="F F F"
In       0.00000000       0.00000000       0.00000000       0.00000000       0.00000000    -470.91757202
In       0.00000000       0.00000000       0.70909091       0.00000000       0.00000000     470.91757202
2
Properties=species:S:1:pos:R:3:forces:R:3 energy=63.47169171604965 pbc="F F F"
In       0.00000000       0.00000000       0.00000000       0.00000000       0.00000000    -290.24493408
In       0.00000000       0.00000000       0.76787879       0.00000000       0.00000000     290.24493408
2
Properties=species:S:1:pos:R:3:forces:R:3 energy=48.78577115277308 pbc="F F F"
In       0.00000000       0.00000000       0.00000000       0.00000000       0.00000000    -161.46310425
In       0.00000000       0.00000000       0.82666667       0.00000000       0.00000000     161.46310425
2
Properties=species:S:1:pos:R:3:forces:R:3 energy=48.43012714527859 pbc="F F F"
In       0.00000000       0.00000000       0.00000000       0.00000000       0.00000000      97.19476318
In       0.00000000       0.00000000       0.88545455       0.00000000       0.00000000     -97.19476318
2
Properties=species:S:1:pos:R:3:forces:R:3 energy=58.18077594475685 pbc="F F F"
In       0.00000000       0.00000000       0.00000000       0.00000000       0.00000000     187.81770325
In       0.00000000       0.00000000       0.94424242       0.00000000       0.00000000    -187.81770325
2
Properties=species:S:1:pos:R:3:forces:R:3 energy=67.53711104918867 pbc="F F F"
In       0.00000000       0.00000000       0.00000000       0.00000000       0.00000000     122.96864319
In       0.00000000       0.00000000       1.00303030       0.00000000       0.00000000    -122.96864319
2
Properties=species:S:1:pos:R:3:forces:R:3 energy=71.55207284940116 pbc="F F F"
In       0.00000000       0.00000000       0.00000000       0.00000000       0.00000000      -6.51452780
In       0.00000000       0.00000000       1.06181818       0.00000000       0.00000000       6.51452780
2
Properties=species:S:1:pos:R:3:forces:R:3 energy=66.2868682137064 pbc="F F F"
In       0.00000000       0.00000000       0.00000000       0.00000000       0.00000000    -168.01815796
In       0.00000000       0.00000000       1.12060606       0.00000000       0.00000000     168.01815796
2
Properties=species:S:1:pos:R:3:forces:R:3 energy=57.37052550043077 pbc="F F F"
In       0.00000000       0.00000000       0.00000000       0.00000000       0.00000000    -104.22774506
In       0.00000000       0.00000000       1.17939394       0.00000000       0.00000000     104.22774506
2
Properties=species:S:1:pos:R:3:forces:R:3 energy=52.68103931028424 pbc="F F F"
In       0.00000000       0.00000000       0.00000000       0.00000000       0.00000000     -80.60134125
In       0.00000000       0.00000000       1.23818182       0.00000000       0.00000000      80.60134125
2
Properties=species:S:1:pos:R:3:forces:R:3 energy=47.09836499203565 pbc="F F F"
In       0.00000000       0.00000000       0.00000000       0.00000000       0.00000000    -101.37761688
In       0.00000000       0.00000000       1.29696970       0.00000000       0.00000000     101.37761688
2
Properties=species:S:1:pos:R:3:forces:R:3 energy=41.15346270472053 pbc="F F F"
In       0.00000000       0.00000000       0.00000000       0.00000000       0.00000000    -100.09442139
In       0.00000000       0.00000000       1.35575758       0.00000000       0.00000000     100.09442139
2
Properties=species:S:1:pos:R:3:forces:R:3 energy=35.64087676334427 pbc="F F F"
In       0.00000000       0.00000000       0.00000000       0.00000000       0.00000000     -85.38115692
In       0.00000000       0.00000000       1.41454545       0.00000000       0.00000000      85.38115692
2
Properties=species:S:1:pos:R:3:forces:R:3 energy=30.937709170638335 pbc="F F F"
In       0.00000000       0.00000000       0.00000000       0.00000000       0.00000000     -76.48532104
In       0.00000000       0.00000000       1.47333333       0.00000000       0.00000000      76.48532104
2
Properties=species:S:1:pos:R:3:forces:R:3 energy=26.387896957642536 pbc="F F F"
In       0.00000000       0.00000000       0.00000000       0.00000000       0.00000000     -78.04536438
In       0.00000000       0.00000000       1.53212121       0.00000000       0.00000000      78.04536438
2
Properties=species:S:1:pos:R:3:forces:R:3 energy=21.98683592730925 pbc="F F F"
In       0.00000000       0.00000000       0.00000000       0.00000000       0.00000000     -71.76737976
In       0.00000000       0.00000000       1.59090909       0.00000000       0.00000000      71.76737976
2
Properties=species:S:1:pos:R:3:forces:R:3 energy=17.851786207774172 pbc="F F F"
In       0.00000000       0.00000000       0.00000000       0.00000000       0.00000000     -67.91572571
In       0.00000000       0.00000000       1.64969697       0.00000000       0.00000000      67.91572571
2
Properties=species:S:1:pos:R:3:forces:R:3 energy=14.063674877912584 pbc="F F F"
In       0.00000000       0.00000000       0.00000000       0.00000000       0.00000000     -60.34773254
In       0.00000000       0.00000000       1.70848485       0.00000000       0.00000000      60.34773254
2
Properties=species:S:1:pos:R:3:forces:R:3 energy=10.818308637425355 pbc="F F F"
In       0.00000000       0.00000000       0.00000000       0.00000000       0.00000000     -50.55522156
In       0.00000000       0.00000000       1.76727273       0.00000000       0.00000000      50.55522156
2
Properties=species:S:1:pos:R:3:forces:R:3 energy=8.048035953067169 pbc="F F F"
In       0.00000000       0.00000000       0.00000000       0.00000000       0.00000000     -43.67498016
In       0.00000000       0.00000000       1.82606061       0.00000000       0.00000000      43.67498016
2
Properties=species:S:1:pos:R:3:forces:R:3 energy=5.711790438023513 pbc="F F F"
In       0.00000000       0.00000000       0.00000000       0.00000000       0.00000000     -35.91842651
In       0.00000000       0.00000000       1.88484848       0.00000000       0.00000000      35.91842651
2
Properties=species:S:1:pos:R:3:forces:R:3 energy=3.808661624761856 pbc="F F F"
In       0.00000000       0.00000000       0.00000000       0.00000000       0.00000000     -28.89452744
In       0.00000000       0.00000000       1.94363636       0.00000000       0.00000000      28.89452744
2
Properties=species:S:1:pos:R:3:forces:R:3 energy=2.2958917945710065 pbc="F F F"
In       0.00000000       0.00000000       0.00000000       0.00000000       0.00000000     -22.74875832
In       0.00000000       0.00000000       2.00242424       0.00000000       0.00000000      22.74875832
2
Properties=species:S:1:pos:R:3:forces:R:3 energy=1.1237347983838126 pbc="F F F"
In       0.00000000       0.00000000       0.00000000       0.00000000       0.00000000     -17.27265167
In       0.00000000       0.00000000       2.06121212       0.00000000       0.00000000      17.27265167
2
Properties=species:S:1:pos:R:3:forces:R:3 energy=0.2337836621504571 pbc="F F F"
In       0.00000000       0.00000000       0.00000000       0.00000000       0.00000000     -13.25034142
In       0.00000000       0.00000000       2.12000000       0.00000000       0.00000000      13.25034142
2
Properties=species:S:1:pos:R:3:forces:R:3 energy=-0.4562538097600304 pbc="F F F"
In       0.00000000       0.00000000       0.00000000       0.00000000       0.00000000     -10.39684772
In       0.00000000       0.00000000       2.17878788       0.00000000       0.00000000      10.39684772
2
Properties=species:S:1:pos:R:3:forces:R:3 energy=-1.0031690290916089 pbc="F F F"
In       0.00000000       0.00000000       0.00000000       0.00000000       0.00000000      -8.29138184
In       0.00000000       0.00000000       2.23757576       0.00000000       0.00000000       8.29138184
2
Properties=species:S:1:pos:R:3:forces:R:3 energy=-1.4415218699430212 pbc="F F F"
In       0.00000000       0.00000000       0.00000000       0.00000000       0.00000000      -6.69619274
In       0.00000000       0.00000000       2.29636364       0.00000000       0.00000000       6.69619274
2
Properties=species:S:1:pos:R:3:forces:R:3 energy=-1.794869277686493 pbc="F F F"
In       0.00000000       0.00000000       0.00000000       0.00000000       0.00000000      -5.34546471
In       0.00000000       0.00000000       2.35515152       0.00000000       0.00000000       5.34546471
2
Properties=species:S:1:pos:R:3:forces:R:3 energy=-2.0738059482524984 pbc="F F F"
In       0.00000000       0.00000000       0.00000000       0.00000000       0.00000000      -4.18120766
In       0.00000000       0.00000000       2.41393939       0.00000000       0.00000000       4.18120766
2
Properties=species:S:1:pos:R:3:forces:R:3 energy=-2.290047560709909 pbc="F F F"
In       0.00000000       0.00000000       0.00000000       0.00000000       0.00000000      -3.20066118
In       0.00000000       0.00000000       2.47272727       0.00000000       0.00000000       3.20066118
2
Properties=species:S:1:pos:R:3:forces:R:3 energy=-2.4524118598162077 pbc="F F F"
In       0.00000000       0.00000000       0.00000000       0.00000000       0.00000000      -2.33827186
In       0.00000000       0.00000000       2.53151515       0.00000000       0.00000000       2.33827186
2
Properties=species:S:1:pos:R:3:forces:R:3 energy=-2.567244035944296 pbc="F F F"
In       0.00000000       0.00000000       0.00000000       0.00000000       0.00000000      -1.59389496
In       0.00000000       0.00000000       2.59030303       0.00000000       0.00000000       1.59389496
2
Properties=species:S:1:pos:R:3:forces:R:3 energy=-2.6429801327142286 pbc="F F F"
In       0.00000000       0.00000000       0.00000000       0.00000000       0.00000000      -1.00672710
In       0.00000000       0.00000000       2.64909091       0.00000000       0.00000000       1.00672710
2
Properties=species:S:1:pos:R:3:forces:R:3 energy=-2.6876951344866216 pbc="F F F"
In       0.00000000       0.00000000       0.00000000       0.00000000       0.00000000      -0.52602869
In       0.00000000       0.00000000       2.70787879       0.00000000       0.00000000       0.52602869
2
Properties=species:S:1:pos:R:3:forces:R:3 energy=-2.7058644602784514 pbc="F F F"
In       0.00000000       0.00000000       0.00000000       0.00000000       0.00000000      -0.10138806
In       0.00000000       0.00000000       2.76666667       0.00000000       0.00000000       0.10138806
2
Properties=species:S:1:pos:R:3:forces:R:3 energy=-2.7010815617618 pbc="F F F"
In       0.00000000       0.00000000       0.00000000       0.00000000       0.00000000       0.24843051
In       0.00000000       0.00000000       2.82545455       0.00000000       0.00000000      -0.24843051
2
Properties=species:S:1:pos:R:3:forces:R:3 energy=-2.6786871154870826 pbc="F F F"
In       0.00000000       0.00000000       0.00000000       0.00000000       0.00000000       0.49581751
In       0.00000000       0.00000000       2.88424242       0.00000000       0.00000000      -0.49581751
2
Properties=species:S:1:pos:R:3:forces:R:3 energy=-2.6446944616754906 pbc="F F F"
In       0.00000000       0.00000000       0.00000000       0.00000000       0.00000000       0.64664060
In       0.00000000       0.00000000       2.94303030       0.00000000       0.00000000      -0.64664060
2
Properties=species:S:1:pos:R:3:forces:R:3 energy=-2.6039608750326466 pbc="F F F"
In       0.00000000       0.00000000       0.00000000       0.00000000       0.00000000       0.73105937
In       0.00000000       0.00000000       3.00181818       0.00000000       0.00000000      -0.73105937
2
Properties=species:S:1:pos:R:3:forces:R:3 energy=-2.559416931392889 pbc="F F F"
In       0.00000000       0.00000000       0.00000000       0.00000000       0.00000000       0.78025717
In       0.00000000       0.00000000       3.06060606       0.00000000       0.00000000      -0.78025717
2
Properties=species:S:1:pos:R:3:forces:R:3 energy=-2.512608106896556 pbc="F F F"
In       0.00000000       0.00000000       0.00000000       0.00000000       0.00000000       0.80929023
In       0.00000000       0.00000000       3.11939394       0.00000000       0.00000000      -0.80929023
2
Properties=species:S:1:pos:R:3:forces:R:3 energy=-2.4645963715589154 pbc="F F F"
In       0.00000000       0.00000000       0.00000000       0.00000000       0.00000000       0.82131022
In       0.00000000       0.00000000       3.17818182       0.00000000       0.00000000      -0.82131022
2
Properties=species:S:1:pos:R:3:forces:R:3 energy=-2.4163635098311667 pbc="F F F"
In       0.00000000       0.00000000       0.00000000       0.00000000       0.00000000       0.81691766
In       0.00000000       0.00000000       3.23696970       0.00000000       0.00000000      -0.81691766
2
Properties=species:S:1:pos:R:3:forces:R:3 energy=-2.368856587127784 pbc="F F F"
In       0.00000000       0.00000000       0.00000000       0.00000000       0.00000000       0.79677737
In       0.00000000       0.00000000       3.29575758       0.00000000       0.00000000      -0.79677737
2
Properties=species:S:1:pos:R:3:forces:R:3 energy=-2.322945627308408 pbc="F F F"
In       0.00000000       0.00000000       0.00000000       0.00000000       0.00000000       0.76324314
In       0.00000000       0.00000000       3.35454545       0.00000000       0.00000000      -0.76324314
2
Properties=species:S:1:pos:R:3:forces:R:3 energy=-2.2792845850098975 pbc="F F F"
In       0.00000000       0.00000000       0.00000000       0.00000000       0.00000000       0.72124738
In       0.00000000       0.00000000       3.41333333       0.00000000       0.00000000      -0.72124738
2
Properties=species:S:1:pos:R:3:forces:R:3 energy=-2.2381910383067756 pbc="F F F"
In       0.00000000       0.00000000       0.00000000       0.00000000       0.00000000       0.67685610
In       0.00000000       0.00000000       3.47212121       0.00000000       0.00000000      -0.67685610
2
Properties=species:S:1:pos:R:3:forces:R:3 energy=-2.1996545341712297 pbc="F F F"
In       0.00000000       0.00000000       0.00000000       0.00000000       0.00000000       0.63483298
In       0.00000000       0.00000000       3.53090909       0.00000000       0.00000000      -0.63483298
2
Properties=species:S:1:pos:R:3:forces:R:3 energy=-2.16346024644905 pbc="F F F"
In       0.00000000       0.00000000       0.00000000       0.00000000       0.00000000       0.59730273
In       0.00000000       0.00000000       3.58969697       0.00000000       0.00000000      -0.59730273
2
Properties=species:S:1:pos:R:3:forces:R:3 energy=-2.1293409481683216 pbc="F F F"
In       0.00000000       0.00000000       0.00000000       0.00000000       0.00000000       0.56409591
In       0.00000000       0.00000000       3.64848485       0.00000000       0.00000000      -0.56409591
2
Properties=species:S:1:pos:R:3:forces:R:3 energy=-2.0970746937156366 pbc="F F F"
In       0.00000000       0.00000000       0.00000000       0.00000000       0.00000000       0.53403109
In       0.00000000       0.00000000       3.70727273       0.00000000       0.00000000      -0.53403109
2
Properties=species:S:1:pos:R:3:forces:R:3 energy=-2.0665102877668087 pbc="F F F"
In       0.00000000       0.00000000       0.00000000       0.00000000       0.00000000       0.50610977
In       0.00000000       0.00000000       3.76606061       0.00000000       0.00000000      -0.50610977
2
Properties=species:S:1:pos:R:3:forces:R:3 energy=-2.037534463165394 pbc="F F F"
In       0.00000000       0.00000000       0.00000000       0.00000000       0.00000000       0.47996041
In       0.00000000       0.00000000       3.82484848       0.00000000       0.00000000      -0.47996041
2
Properties=species:S:1:pos:R:3:forces:R:3 energy=-2.0100431693228877 pbc="F F F"
In       0.00000000       0.00000000       0.00000000       0.00000000       0.00000000       0.45558855
In       0.00000000       0.00000000       3.88363636       0.00000000       0.00000000      -0.45558855
2
Properties=species:S:1:pos:R:3:forces:R:3 energy=-1.983934156252564 pbc="F F F"
In       0.00000000       0.00000000       0.00000000       0.00000000       0.00000000       0.43294731
In       0.00000000       0.00000000       3.94242424       0.00000000       0.00000000      -0.43294731
2
Properties=species:S:1:pos:R:3:forces:R:3 energy=-1.959111754460729 pbc="F F F"
In       0.00000000       0.00000000       0.00000000       0.00000000       0.00000000       0.41175634
In       0.00000000       0.00000000       4.00121212       0.00000000       0.00000000      -0.41175634
2
Properties=species:S:1:pos:R:3:forces:R:3 energy=-1.9355012004125365 pbc="F F F"
In       0.00000000       0.00000000       0.00000000       0.00000000       0.00000000       0.39165258
In       0.00000000       0.00000000       4.06000000       0.00000000       0.00000000      -0.39165258
2
Properties=species:S:1:pos:R:3:forces:R:3 energy=-1.913044910373891 pbc="F F F"
In       0.00000000       0.00000000       0.00000000       0.00000000       0.00000000       0.37243149
In       0.00000000       0.00000000       4.11878788       0.00000000       0.00000000      -0.37243149
2
Properties=species:S:1:pos:R:3:forces:R:3 energy=-1.8916944612149444 pbc="F F F"
In       0.00000000       0.00000000       0.00000000       0.00000000       0.00000000       0.35412174
In       0.00000000       0.00000000       4.17757576       0.00000000       0.00000000      -0.35412174
2
Properties=species:S:1:pos:R:3:forces:R:3 energy=-1.871387869289157 pbc="F F F"
In       0.00000000       0.00000000       0.00000000       0.00000000       0.00000000       0.33688909
In       0.00000000       0.00000000       4.23636364       0.00000000       0.00000000      -0.33688909
2
Properties=species:S:1:pos:R:3:forces:R:3 energy=-1.8520581663345825 pbc="F F F"
In       0.00000000       0.00000000       0.00000000       0.00000000       0.00000000       0.32089937
In       0.00000000       0.00000000       4.29515152       0.00000000       0.00000000      -0.32089937
2
Properties=species:S:1:pos:R:3:forces:R:3 energy=-1.833631634677233 pbc="F F F"
In       0.00000000       0.00000000       0.00000000       0.00000000       0.00000000       0.30625093
In       0.00000000       0.00000000       4.35393939       0.00000000       0.00000000      -0.30625093
2
Properties=species:S:1:pos:R:3:forces:R:3 energy=-1.8160247996563919 pbc="F F F"
In       0.00000000       0.00000000       0.00000000       0.00000000       0.00000000       0.29294893
In       0.00000000       0.00000000       4.41272727       0.00000000       0.00000000      -0.29294893
2
Properties=species:S:1:pos:R:3:forces:R:3 energy=-1.7991623680388455 pbc="F F F"
In       0.00000000       0.00000000       0.00000000       0.00000000       0.00000000       0.28089598
In       0.00000000       0.00000000       4.47151515       0.00000000       0.00000000      -0.28089598
2
Properties=species:S:1:pos:R:3:forces:R:3 energy=-1.7829777016882196 pbc="F F F"
In       0.00000000       0.00000000       0.00000000       0.00000000       0.00000000       0.26987472
In       0.00000000       0.00000000       4.53030303       0.00000000       0.00000000      -0.26987472
2
Properties=species:S:1:pos:R:3:forces:R:3 energy=-1.767418294856654 pbc="F F F"
In       0.00000000       0.00000000       0.00000000       0.00000000       0.00000000       0.25956661
In       0.00000000       0.00000000       4.58909091       0.00000000       0.00000000      -0.25956661
2
Properties=species:S:1:pos:R:3:forces:R:3 energy=-1.7524524720797718 pbc="F F F"
In       0.00000000       0.00000000       0.00000000       0.00000000       0.00000000       0.24962971
In       0.00000000       0.00000000       4.64787879       0.00000000       0.00000000      -0.24962971
2
Properties=species:S:1:pos:R:3:forces:R:3 energy=-1.7380661937004884 pbc="F F F"
In       0.00000000       0.00000000       0.00000000       0.00000000       0.00000000       0.23979549
In       0.00000000       0.00000000       4.70666667       0.00000000       0.00000000      -0.23979549
2
Properties=species:S:1:pos:R:3:forces:R:3 energy=-1.7242582399800952 pbc="F F F"
In       0.00000000       0.00000000       0.00000000       0.00000000       0.00000000       0.22997102
In       0.00000000       0.00000000       4.76545455       0.00000000       0.00000000      -0.22997102
2
Properties=species:S:1:pos:R:3:forces:R:3 energy=-1.7110235217977243 pbc="F F F"
In       0.00000000       0.00000000       0.00000000       0.00000000       0.00000000       0.22027901
In       0.00000000       0.00000000       4.82424242       0.00000000       0.00000000      -0.22027901
2
Properties=species:S:1:pos:R:3:forces:R:3 energy=-1.6983505887586028 pbc="F F F"
In       0.00000000       0.00000000       0.00000000       0.00000000       0.00000000       0.21100281
In       0.00000000       0.00000000       4.88303030       0.00000000       0.00000000      -0.21100281
2
Properties=species:S:1:pos:R:3:forces:R:3 energy=-1.686201506998745 pbc="F F F"
In       0.00000000       0.00000000       0.00000000       0.00000000       0.00000000       0.20245208
In       0.00000000       0.00000000       4.94181818       0.00000000       0.00000000      -0.20245208
2
Properties=species:S:1:pos:R:3:forces:R:3 energy=-1.6745287647293137 pbc="F F F"
In       0.00000000       0.00000000       0.00000000       0.00000000       0.00000000       0.19480680
In       0.00000000       0.00000000       5.00060606       0.00000000       0.00000000      -0.19480680
2
Properties=species:S:1:pos:R:3:forces:R:3 energy=-1.6632804604245601 pbc="F F F"
In       0.00000000       0.00000000       0.00000000       0.00000000       0.00000000       0.18797103
In       0.00000000       0.00000000       5.05939394       0.00000000       0.00000000      -0.18797103
2
Properties=species:S:1:pos:R:3:forces:R:3 energy=-1.6524202191086956 pbc="F F F"
In       0.00000000       0.00000000       0.00000000       0.00000000       0.00000000       0.18151735
In       0.00000000       0.00000000       5.11818182       0.00000000       0.00000000      -0.18151735
2
Properties=species:S:1:pos:R:3:forces:R:3 energy=-1.6419457509911939 pbc="F F F"
In       0.00000000       0.00000000       0.00000000       0.00000000       0.00000000       0.17473146
In       0.00000000       0.00000000       5.17696970       0.00000000       0.00000000      -0.17473146
2
Properties=species:S:1:pos:R:3:forces:R:3 energy=-1.6318991208887152 pbc="F F F"
In       0.00000000       0.00000000       0.00000000       0.00000000       0.00000000       0.16677178
In       0.00000000       0.00000000       5.23575758       0.00000000       0.00000000      -0.16677178
2
Properties=species:S:1:pos:R:3:forces:R:3 energy=-1.6223754144892475 pbc="F F F"
In       0.00000000       0.00000000       0.00000000       0.00000000       0.00000000       0.15685232
In       0.00000000       0.00000000       5.29454545       0.00000000       0.00000000      -0.15685232
2
Properties=species:S:1:pos:R:3:forces:R:3 energy=-1.6135066225073031 pbc="F F F"
In       0.00000000       0.00000000       0.00000000       0.00000000       0.00000000       0.14445157
In       0.00000000       0.00000000       5.35333333       0.00000000       0.00000000      -0.14445157
2
Properties=species:S:1:pos:R:3:forces:R:3 energy=-1.6054431763312862 pbc="F F F"
In       0.00000000       0.00000000       0.00000000       0.00000000       0.00000000       0.12946768
In       0.00000000       0.00000000       5.41212121       0.00000000       0.00000000      -0.12946768
2
Properties=species:S:1:pos:R:3:forces:R:3 energy=-1.5983270288988087 pbc="F F F"
In       0.00000000       0.00000000       0.00000000       0.00000000       0.00000000       0.11227927
In       0.00000000       0.00000000       5.47090909       0.00000000       0.00000000      -0.11227927
2
Properties=species:S:1:pos:R:3:forces:R:3 energy=-1.5922668718357529 pbc="F F F"
In       0.00000000       0.00000000       0.00000000       0.00000000       0.00000000       0.09371715
In       0.00000000       0.00000000       5.52969697       0.00000000       0.00000000      -0.09371715
2
Properties=species:S:1:pos:R:3:forces:R:3 energy=-1.5873135704230685 pbc="F F F"
In       0.00000000       0.00000000       0.00000000       0.00000000       0.00000000       0.07492637
In       0.00000000       0.00000000       5.58848485       0.00000000       0.00000000      -0.07492637
2
Properties=species:S:1:pos:R:3:forces:R:3 energy=-1.5834387312672307 pbc="F F F"
In       0.00000000       0.00000000       0.00000000       0.00000000       0.00000000       0.05720335
In       0.00000000       0.00000000       5.64727273       0.00000000       0.00000000      -0.05720335
2
Properties=species:S:1:pos:R:3:forces:R:3 energy=-1.580543984785714 pbc="F F F"
In       0.00000000       0.00000000       0.00000000       0.00000000       0.00000000       0.04173220
In       0.00000000       0.00000000       5.70606061       0.00000000       0.00000000      -0.04173220
2
Properties=species:S:1:pos:R:3:forces:R:3 energy=-1.5784677496262278 pbc="F F F"
In       0.00000000       0.00000000       0.00000000       0.00000000       0.00000000       0.02942461
In       0.00000000       0.00000000       5.76484848       0.00000000       0.00000000      -0.02942461
2
Properties=species:S:1:pos:R:3:forces:R:3 energy=-1.5770114397034842 pbc="F F F"
In       0.00000000       0.00000000       0.00000000       0.00000000       0.00000000       0.02073043
In       0.00000000       0.00000000       5.82363636       0.00000000       0.00000000      -0.02073043
2
Properties=species:S:1:pos:R:3:forces:R:3 energy=-1.5759623650540808 pbc="F F F"
In       0.00000000       0.00000000       0.00000000       0.00000000       0.00000000       0.01552459
In       0.00000000       0.00000000       5.88242424       0.00000000       0.00000000      -0.01552459
2
Properties=species:S:1:pos:R:3:forces:R:3 energy=-1.575132442761424 pbc="F F F"
In       0.00000000       0.00000000       0.00000000       0.00000000       0.00000000       0.01309496
In       0.00000000       0.00000000       5.94121212       0.00000000       0.00000000      -0.01309496
2
Properties=species:S:1:pos:R:3:forces:R:3 energy=-1.5743920222996504 pbc="F F F"
In       0.00000000       0.00000000       0.00000000       0.00000000       0.00000000       0.01224228
In       0.00000000       0.00000000       6.00000000       0.00000000       0.00000000      -0.01224228
