2
Properties=species:S:1:pos:R:3:forces:R:3 energy=49864903.95286939 pbc="F F F"
Ir       0.00000000       0.00000000       0.00000000       0.00000000       0.00000000 -449405920.00000000
Ir       0.00000000       0.00000000       0.18000000       0.00000000       0.00000000 449405920.00000000
2
Properties=species:S:1:pos:R:3:forces:R:3 energy=26689921.952869397 pbc="F F F"
Ir       0.00000000       0.00000000       0.00000000       0.00000000       0.00000000 -327852544.00000000
Ir       0.00000000       0.00000000       0.23878788       0.00000000       0.00000000 327852544.00000000
2
Properties=species:S:1:pos:R:3:forces:R:3 energy=11709593.952869399 pbc="F F F"
Ir       0.00000000       0.00000000       0.00000000       0.00000000       0.00000000 -184865200.00000000
Ir       0.00000000       0.00000000       0.29757576       0.00000000       0.00000000 184865200.00000000
2
Properties=species:S:1:pos:R:3:forces:R:3 energy=4155535.452869402 pbc="F F F"
Ir       0.00000000       0.00000000       0.00000000       0.00000000       0.00000000 -80416584.00000000
Ir       0.00000000       0.00000000       0.35636364       0.00000000       0.00000000 80416584.00000000
2
Properties=species:S:1:pos:R:3:forces:R:3 energy=1182739.827869408 pbc="F F F"
Ir       0.00000000       0.00000000       0.00000000       0.00000000       0.00000000 -28499554.00000000
Ir       0.00000000       0.00000000       0.41515152       0.00000000       0.00000000 28499554.00000000
2
Properties=species:S:1:pos:R:3:forces:R:3 energy=230613.89036942084 pbc="F F F"
Ir       0.00000000       0.00000000       0.00000000       0.00000000       0.00000000 -7483148.50000000
Ir       0.00000000       0.00000000       0.47393939       0.00000000       0.00000000 7483148.50000000
2
Properties=species:S:1:pos:R:3:forces:R:3 energy=21688.837635068026 pbc="F F F"
Ir       0.00000000       0.00000000       0.00000000       0.00000000       0.00000000 -1133523.12500000
Ir       0.00000000       0.00000000       0.53272727       0.00000000       0.00000000 1133523.12500000
2
Properties=species:S:1:pos:R:3:forces:R:3 energy=-773.8789176251674 pbc="F F F"
Ir       0.00000000       0.00000000       0.00000000       0.00000000       0.00000000  -35289.60937500
Ir       0.00000000       0.00000000       0.59151515       0.00000000       0.00000000   35289.60937500
2
Properties=species:S:1:pos:R:3:forces:R:3 energy=-363.4588125813423 pbc="F F F"
Ir       0.00000000       0.00000000       0.00000000       0.00000000       0.00000000    3653.54589844
Ir       0.00000000       0.00000000       0.65030303       0.00000000       0.00000000   -3653.54589844
2
Properties=species:S:1:pos:R:3:forces:R:3 energy=-248.8538167429294 pbc="F F F"
Ir       0.00000000       0.00000000       0.00000000       0.00000000       0.00000000     985.13177490
Ir       0.00000000       0.00000000       0.70909091       0.00000000       0.00000000    -985.13177490
2
Properties=species:S:1:pos:R:3:forces:R:3 energy=-192.62099797468704 pbc="F F F"
Ir       0.00000000       0.00000000       0.00000000       0.00000000       0.00000000     502.24652100
Ir       0.00000000       0.00000000       0.76787879       0.00000000       0.00000000    -502.24652100
2
Properties=species:S:1:pos:R:3:forces:R:3 energy=-190.02717144315505 pbc="F F F"
Ir       0.00000000       0.00000000       0.00000000       0.00000000       0.00000000    -244.17034912
Ir       0.00000000       0.00000000       0.82666667       0.00000000       0.00000000     244.17034912
2
Properties=species:S:1:pos:R:3:forces:R:3 energy=-185.06338020747557 pbc="F F F"
Ir       0.00000000       0.00000000       0.00000000       0.00000000       0.00000000     223.19018555
Ir       0.00000000       0.00000000       0.88545455       0.00000000       0.00000000    -223.19018555
2
Properties=species:S:1:pos:R:3:forces:R:3 energy=-150.8878731278341 pbc="F F F"
Ir       0.00000000       0.00000000       0.00000000       0.00000000       0.00000000    1458.92626953
Ir       0.00000000       0.00000000       0.94424242       0.00000000       0.00000000   -1458.92626953
2
Properties=species:S:1:pos:R:3:forces:R:3 energy=-72.88168502679443 pbc="F F F"
Ir       0.00000000       0.00000000       0.00000000       0.00000000       0.00000000    1044.17248535
Ir       0.00000000       0.00000000       1.00303030       0.00000000       0.00000000   -1044.17248535
2
Properties=species:S:1:pos:R:3:forces:R:3 energy=-26.939276522268532 pbc="F F F"
Ir       0.00000000       0.00000000       0.00000000       0.00000000       0.00000000     592.29858398
Ir       0.00000000       0.00000000       1.06181818       0.00000000       0.00000000    -592.29858398
2
Properties=species:S:1:pos:R:3:forces:R:3 energy=0.8527673979035446 pbc="F F F"
Ir       0.00000000       0.00000000       0.00000000       0.00000000       0.00000000     358.96661377
Ir       0.00000000       0.00000000       1.12060606       0.00000000       0.00000000    -358.96661377
2
Properties=species:S:1:pos:R:3:forces:R:3 energy=14.177185117055538 pbc="F F F"
Ir       0.00000000       0.00000000       0.00000000       0.00000000       0.00000000      80.71288300
Ir       0.00000000       0.00000000       1.17939394       0.00000000       0.00000000     -80.71288300
2
Properties=species:S:1:pos:R:3:forces:R:3 energy=14.531976868844964 pbc="F F F"
Ir       0.00000000       0.00000000       0.00000000       0.00000000       0.00000000     -40.94277573
Ir       0.00000000       0.00000000       1.23818182       0.00000000       0.00000000      40.94277573
2
Properties=species:S:1:pos:R:3:forces:R:3 energy=11.422608258981636 pbc="F F F"
Ir       0.00000000       0.00000000       0.00000000       0.00000000       0.00000000     -63.71819687
Ir       0.00000000       0.00000000       1.29696970       0.00000000       0.00000000      63.71819687
2
Properties=species:S:1:pos:R:3:forces:R:3 energy=7.465294166375704 pbc="F F F"
Ir       0.00000000       0.00000000       0.00000000       0.00000000       0.00000000     -68.14294434
Ir       0.00000000       0.00000000       1.35575758       0.00000000       0.00000000      68.14294434
2
Properties=species:S:1:pos:R:3:forces:R:3 energy=3.543167664981657 pbc="F F F"
Ir       0.00000000       0.00000000       0.00000000       0.00000000       0.00000000     -63.16389847
Ir       0.00000000       0.00000000       1.41454545       0.00000000       0.00000000      63.16389847
2
Properties=species:S:1:pos:R:3:forces:R:3 energy=0.2719706365912831 pbc="F F F"
Ir       0.00000000       0.00000000       0.00000000       0.00000000       0.00000000     -46.99856949
Ir       0.00000000       0.00000000       1.47333333       0.00000000       0.00000000      46.99856949
2
Properties=species:S:1:pos:R:3:forces:R:3 energy=-2.0206352207795044 pbc="F F F"
Ir       0.00000000       0.00000000       0.00000000       0.00000000       0.00000000     -32.63802719
Ir       0.00000000       0.00000000       1.53212121       0.00000000       0.00000000      32.63802719
2
Properties=species:S:1:pos:R:3:forces:R:3 energy=-3.6555963471253445 pbc="F F F"
Ir       0.00000000       0.00000000       0.00000000       0.00000000       0.00000000     -23.19199181
Ir       0.00000000       0.00000000       1.59090909       0.00000000       0.00000000      23.19199181
2
Properties=species:S:1:pos:R:3:forces:R:3 energy=-4.803948401341847 pbc="F F F"
Ir       0.00000000       0.00000000       0.00000000       0.00000000       0.00000000     -16.47205925
Ir       0.00000000       0.00000000       1.64969697       0.00000000       0.00000000      16.47205925
2
Properties=species:S:1:pos:R:3:forces:R:3 energy=-5.651638526041374 pbc="F F F"
Ir       0.00000000       0.00000000       0.00000000       0.00000000       0.00000000     -12.59842396
Ir       0.00000000       0.00000000       1.70848485       0.00000000       0.00000000      12.59842396
2
Properties=species:S:1:pos:R:3:forces:R:3 energy=-6.303154130848879 pbc="F F F"
Ir       0.00000000       0.00000000       0.00000000       0.00000000       0.00000000      -9.79804230
Ir       0.00000000       0.00000000       1.76727273       0.00000000       0.00000000       9.79804230
2
Properties=species:S:1:pos:R:3:forces:R:3 energy=-6.843656538912405 pbc="F F F"
Ir       0.00000000       0.00000000       0.00000000       0.00000000       0.00000000      -8.78973961
Ir       0.00000000       0.00000000       1.82606061       0.00000000       0.00000000       8.78973961
2
Properties=species:S:1:pos:R:3:forces:R:3 energy=-7.317215092582223 pbc="F F F"
Ir       0.00000000       0.00000000       0.00000000       0.00000000       0.00000000      -7.25676537
Ir       0.00000000       0.00000000       1.88484848       0.00000000       0.00000000       7.25676537
2
Properties=species:S:1:pos:R:3:forces:R:3 energy=-7.688488950201447 pbc="F F F"
Ir       0.00000000       0.00000000       0.00000000       0.00000000       0.00000000      -5.25821114
Ir       0.00000000       0.00000000       1.94363636       0.00000000       0.00000000       5.25821114
2
Properties=species:S:1:pos:R:3:forces:R:3 energy=-7.931398193667686 pbc="F F F"
Ir       0.00000000       0.00000000       0.00000000       0.00000000       0.00000000      -3.05498314
Ir       0.00000000       0.00000000       2.00242424       0.00000000       0.00000000       3.05498314
2
Properties=species:S:1:pos:R:3:forces:R:3 energy=-8.059939689383487 pbc="F F F"
Ir       0.00000000       0.00000000       0.00000000       0.00000000       0.00000000      -1.40379894
Ir       0.00000000       0.00000000       2.06121212       0.00000000       0.00000000       1.40379894
2
Properties=species:S:1:pos:R:3:forces:R:3 energy=-8.09988554014023 pbc="F F F"
Ir       0.00000000       0.00000000       0.00000000       0.00000000       0.00000000       0.03019572
Ir       0.00000000       0.00000000       2.12000000       0.00000000       0.00000000      -0.03019572
2
Properties=species:S:1:pos:R:3:forces:R:3 energy=-8.06343457035599 pbc="F F F"
Ir       0.00000000       0.00000000       0.00000000       0.00000000       0.00000000       1.10565078
Ir       0.00000000       0.00000000       2.17878788       0.00000000       0.00000000      -1.10565078
2
Properties=species:S:1:pos:R:3:forces:R:3 energy=-7.978177469157689 pbc="F F F"
Ir       0.00000000       0.00000000       0.00000000       0.00000000       0.00000000       1.76308167
Ir       0.00000000       0.00000000       2.23757576       0.00000000       0.00000000      -1.76308167
2
Properties=species:S:1:pos:R:3:forces:R:3 energy=-7.862366238753329 pbc="F F F"
Ir       0.00000000       0.00000000       0.00000000       0.00000000       0.00000000       2.11549616
Ir       0.00000000       0.00000000       2.29636364       0.00000000       0.00000000      -2.11549616
2
Properties=species:S:1:pos:R:3:forces:R:3 energy=-7.732175846369163 pbc="F F F"
Ir       0.00000000       0.00000000       0.00000000       0.00000000       0.00000000       2.32508588
Ir       0.00000000       0.00000000       2.35515152       0.00000000       0.00000000      -2.32508588
2
Properties=species:S:1:pos:R:3:forces:R:3 energy=-7.588000633820575 pbc="F F F"
Ir       0.00000000       0.00000000       0.00000000       0.00000000       0.00000000       2.57241511
Ir       0.00000000       0.00000000       2.41393939       0.00000000       0.00000000      -2.57241511
2
Properties=species:S:1:pos:R:3:forces:R:3 energy=-7.432299038418816 pbc="F F F"
Ir       0.00000000       0.00000000       0.00000000       0.00000000       0.00000000       2.69564438
Ir       0.00000000       0.00000000       2.47272727       0.00000000       0.00000000      -2.69564438
2
Properties=species:S:1:pos:R:3:forces:R:3 energy=-7.272679457438789 pbc="F F F"
Ir       0.00000000       0.00000000       0.00000000       0.00000000       0.00000000       2.74245834
Ir       0.00000000       0.00000000       2.53151515       0.00000000       0.00000000      -2.74245834
2
Properties=species:S:1:pos:R:3:forces:R:3 energy=-7.10865542388362 pbc="F F F"
Ir       0.00000000       0.00000000       0.00000000       0.00000000       0.00000000       2.83676100
Ir       0.00000000       0.00000000       2.59030303       0.00000000       0.00000000      -2.83676100
2
Properties=species:S:1:pos:R:3:forces:R:3 energy=-6.940653461817012 pbc="F F F"
Ir       0.00000000       0.00000000       0.00000000       0.00000000       0.00000000       2.86066580
Ir       0.00000000       0.00000000       2.64909091       0.00000000       0.00000000      -2.86066580
2
Properties=species:S:1:pos:R:3:forces:R:3 energy=-6.774211971442575 pbc="F F F"
Ir       0.00000000       0.00000000       0.00000000       0.00000000       0.00000000       2.78875351
Ir       0.00000000       0.00000000       2.70787879       0.00000000       0.00000000      -2.78875351
2
Properties=species:S:1:pos:R:3:forces:R:3 energy=-6.613940150088807 pbc="F F F"
Ir       0.00000000       0.00000000       0.00000000       0.00000000       0.00000000       2.65696144
Ir       0.00000000       0.00000000       2.76666667       0.00000000       0.00000000      -2.65696144
2
Properties=species:S:1:pos:R:3:forces:R:3 energy=-6.462235133328342 pbc="F F F"
Ir       0.00000000       0.00000000       0.00000000       0.00000000       0.00000000       2.50344539
Ir       0.00000000       0.00000000       2.82545455       0.00000000       0.00000000      -2.50344539
2
Properties=species:S:1:pos:R:3:forces:R:3 energy=-6.319526986607198 pbc="F F F"
Ir       0.00000000       0.00000000       0.00000000       0.00000000       0.00000000       2.35239601
Ir       0.00000000       0.00000000       2.88424242       0.00000000       0.00000000      -2.35239601
2
Properties=species:S:1:pos:R:3:forces:R:3 energy=-6.185558471399963 pbc="F F F"
Ir       0.00000000       0.00000000       0.00000000       0.00000000       0.00000000       2.20637202
Ir       0.00000000       0.00000000       2.94303030       0.00000000       0.00000000      -2.20637202
2
Properties=species:S:1:pos:R:3:forces:R:3 energy=-6.0598900657197845 pbc="F F F"
Ir       0.00000000       0.00000000       0.00000000       0.00000000       0.00000000       2.07151985
Ir       0.00000000       0.00000000       3.00181818       0.00000000       0.00000000      -2.07151985
2
Properties=species:S:1:pos:R:3:forces:R:3 energy=-5.941689037890395 pbc="F F F"
Ir       0.00000000       0.00000000       0.00000000       0.00000000       0.00000000       1.95168614
Ir       0.00000000       0.00000000       3.06060606       0.00000000       0.00000000      -1.95168614
2
Properties=species:S:1:pos:R:3:forces:R:3 energy=-5.830338034953623 pbc="F F F"
Ir       0.00000000       0.00000000       0.00000000       0.00000000       0.00000000       1.83614504
Ir       0.00000000       0.00000000       3.11939394       0.00000000       0.00000000      -1.83614504
2
Properties=species:S:1:pos:R:3:forces:R:3 energy=-5.725875811784279 pbc="F F F"
Ir       0.00000000       0.00000000       0.00000000       0.00000000       0.00000000       1.71742427
Ir       0.00000000       0.00000000       3.17818182       0.00000000       0.00000000      -1.71742427
2
Properties=species:S:1:pos:R:3:forces:R:3 energy=-5.62837581096804 pbc="F F F"
Ir       0.00000000       0.00000000       0.00000000       0.00000000       0.00000000       1.60048497
Ir       0.00000000       0.00000000       3.23696970       0.00000000       0.00000000      -1.60048497
2
Properties=species:S:1:pos:R:3:forces:R:3 energy=-5.537565136250298 pbc="F F F"
Ir       0.00000000       0.00000000       0.00000000       0.00000000       0.00000000       1.49014175
Ir       0.00000000       0.00000000       3.29575758       0.00000000       0.00000000      -1.49014175
2
Properties=species:S:1:pos:R:3:forces:R:3 energy=-5.453045025373606 pbc="F F F"
Ir       0.00000000       0.00000000       0.00000000       0.00000000       0.00000000       1.38622189
Ir       0.00000000       0.00000000       3.35454545       0.00000000       0.00000000      -1.38622189
2
Properties=species:S:1:pos:R:3:forces:R:3 energy=-5.374497677027106 pbc="F F F"
Ir       0.00000000       0.00000000       0.00000000       0.00000000       0.00000000       1.28644967
Ir       0.00000000       0.00000000       3.41333333       0.00000000       0.00000000      -1.28644967
2
Properties=species:S:1:pos:R:3:forces:R:3 energy=-5.301736095336753 pbc="F F F"
Ir       0.00000000       0.00000000       0.00000000       0.00000000       0.00000000       1.18948817
Ir       0.00000000       0.00000000       3.47212121       0.00000000       0.00000000      -1.18948817
2
Properties=species:S:1:pos:R:3:forces:R:3 energy=-5.234576411548507 pbc="F F F"
Ir       0.00000000       0.00000000       0.00000000       0.00000000       0.00000000       1.09596848
Ir       0.00000000       0.00000000       3.53090909       0.00000000       0.00000000      -1.09596848
2
Properties=species:S:1:pos:R:3:forces:R:3 energy=-5.1727901496273665 pbc="F F F"
Ir       0.00000000       0.00000000       0.00000000       0.00000000       0.00000000       1.00685823
Ir       0.00000000       0.00000000       3.58969697       0.00000000       0.00000000      -1.00685823
2
Properties=species:S:1:pos:R:3:forces:R:3 energy=-5.116112090070732 pbc="F F F"
Ir       0.00000000       0.00000000       0.00000000       0.00000000       0.00000000       0.92186099
Ir       0.00000000       0.00000000       3.64848485       0.00000000       0.00000000      -0.92186099
2
Properties=species:S:1:pos:R:3:forces:R:3 energy=-5.064345041034688 pbc="F F F"
Ir       0.00000000       0.00000000       0.00000000       0.00000000       0.00000000       0.83974046
Ir       0.00000000       0.00000000       3.70727273       0.00000000       0.00000000      -0.83974046
2
Properties=species:S:1:pos:R:3:forces:R:3 energy=-5.01734478228555 pbc="F F F"
Ir       0.00000000       0.00000000       0.00000000       0.00000000       0.00000000       0.75952947
Ir       0.00000000       0.00000000       3.76606061       0.00000000       0.00000000      -0.75952947
2
Properties=species:S:1:pos:R:3:forces:R:3 energy=-4.975005661882635 pbc="F F F"
Ir       0.00000000       0.00000000       0.00000000       0.00000000       0.00000000       0.68115634
Ir       0.00000000       0.00000000       3.82484848       0.00000000       0.00000000      -0.68115634
2
Properties=species:S:1:pos:R:3:forces:R:3 energy=-4.937209316344909 pbc="F F F"
Ir       0.00000000       0.00000000       0.00000000       0.00000000       0.00000000       0.60523725
Ir       0.00000000       0.00000000       3.88363636       0.00000000       0.00000000      -0.60523725
2
Properties=species:S:1:pos:R:3:forces:R:3 energy=-4.903781666607717 pbc="F F F"
Ir       0.00000000       0.00000000       0.00000000       0.00000000       0.00000000       0.53256828
Ir       0.00000000       0.00000000       3.94242424       0.00000000       0.00000000      -0.53256828
2
Properties=species:S:1:pos:R:3:forces:R:3 energy=-4.874516877090125 pbc="F F F"
Ir       0.00000000       0.00000000       0.00000000       0.00000000       0.00000000       0.46380135
Ir       0.00000000       0.00000000       4.00121212       0.00000000       0.00000000      -0.46380135
2
Properties=species:S:1:pos:R:3:forces:R:3 energy=-4.849162011374651 pbc="F F F"
Ir       0.00000000       0.00000000       0.00000000       0.00000000       0.00000000       0.39944953
Ir       0.00000000       0.00000000       4.06000000       0.00000000       0.00000000      -0.39944953
2
Properties=species:S:1:pos:R:3:forces:R:3 energy=-4.827453278166938 pbc="F F F"
Ir       0.00000000       0.00000000       0.00000000       0.00000000       0.00000000       0.34001082
Ir       0.00000000       0.00000000       4.11878788       0.00000000       0.00000000      -0.34001082
2
Properties=species:S:1:pos:R:3:forces:R:3 energy=-4.809080837212883 pbc="F F F"
Ir       0.00000000       0.00000000       0.00000000       0.00000000       0.00000000       0.28596202
Ir       0.00000000       0.00000000       4.17757576       0.00000000       0.00000000      -0.28596202
2
Properties=species:S:1:pos:R:3:forces:R:3 energy=-4.793719148982195 pbc="F F F"
Ir       0.00000000       0.00000000       0.00000000       0.00000000       0.00000000       0.23763429
Ir       0.00000000       0.00000000       4.23636364       0.00000000       0.00000000      -0.23763429
2
Properties=species:S:1:pos:R:3:forces:R:3 energy=-4.781026942990171 pbc="F F F"
Ir       0.00000000       0.00000000       0.00000000       0.00000000       0.00000000       0.19507980
Ir       0.00000000       0.00000000       4.29515152       0.00000000       0.00000000      -0.19507980
2
Properties=species:S:1:pos:R:3:forces:R:3 energy=-4.770673917510732 pbc="F F F"
Ir       0.00000000       0.00000000       0.00000000       0.00000000       0.00000000       0.15805501
Ir       0.00000000       0.00000000       4.35393939       0.00000000       0.00000000      -0.15805501
2
Properties=species:S:1:pos:R:3:forces:R:3 energy=-4.762345273529165 pbc="F F F"
Ir       0.00000000       0.00000000       0.00000000       0.00000000       0.00000000       0.12610391
Ir       0.00000000       0.00000000       4.41272727       0.00000000       0.00000000      -0.12610391
2
Properties=species:S:1:pos:R:3:forces:R:3 energy=-4.755756124395006 pbc="F F F"
Ir       0.00000000       0.00000000       0.00000000       0.00000000       0.00000000       0.09870397
Ir       0.00000000       0.00000000       4.47151515       0.00000000       0.00000000      -0.09870397
2
Properties=species:S:1:pos:R:3:forces:R:3 energy=-4.75065881160217 pbc="F F F"
Ir       0.00000000       0.00000000       0.00000000       0.00000000       0.00000000       0.07538091
Ir       0.00000000       0.00000000       4.53030303       0.00000000       0.00000000      -0.07538091
2
Properties=species:S:1:pos:R:3:forces:R:3 energy=-4.746822877628314 pbc="F F F"
Ir       0.00000000       0.00000000       0.00000000       0.00000000       0.00000000       0.05577085
Ir       0.00000000       0.00000000       4.58909091       0.00000000       0.00000000      -0.05577085
2
Properties=species:S:1:pos:R:3:forces:R:3 energy=-4.7440340267293175 pbc="F F F"
Ir       0.00000000       0.00000000       0.00000000       0.00000000       0.00000000       0.03961220
Ir       0.00000000       0.00000000       4.64787879       0.00000000       0.00000000      -0.03961220
2
Properties=species:S:1:pos:R:3:forces:R:3 energy=-4.7420996379089235 pbc="F F F"
Ir       0.00000000       0.00000000       0.00000000       0.00000000       0.00000000       0.02669287
Ir       0.00000000       0.00000000       4.70666667       0.00000000       0.00000000      -0.02669287
2
Properties=species:S:1:pos:R:3:forces:R:3 energy=-4.7408363703204435 pbc="F F F"
Ir       0.00000000       0.00000000       0.00000000       0.00000000       0.00000000       0.01679122
Ir       0.00000000       0.00000000       4.76545455       0.00000000       0.00000000      -0.01679122
2
Properties=species:S:1:pos:R:3:forces:R:3 energy=-4.740071953405971 pbc="F F F"
Ir       0.00000000       0.00000000       0.00000000       0.00000000       0.00000000       0.00963852
Ir       0.00000000       0.00000000       4.82424242       0.00000000       0.00000000      -0.00963852
2
Properties=species:S:1:pos:R:3:forces:R:3 energy=-4.7396575434808135 pbc="F F F"
Ir       0.00000000       0.00000000       0.00000000       0.00000000       0.00000000       0.00492061
Ir       0.00000000       0.00000000       4.88303030       0.00000000       0.00000000      -0.00492061
2
Properties=species:S:1:pos:R:3:forces:R:3 energy=-4.739455221429236 pbc="F F F"
Ir       0.00000000       0.00000000       0.00000000       0.00000000       0.00000000       0.00229585
Ir       0.00000000       0.00000000       4.94181818       0.00000000       0.00000000      -0.00229585
2
Properties=species:S:1:pos:R:3:forces:R:3 energy=-4.739351340977082 pbc="F F F"
Ir       0.00000000       0.00000000       0.00000000       0.00000000       0.00000000       0.00142094
Ir       0.00000000       0.00000000       5.00060606       0.00000000       0.00000000      -0.00142094
2
Properties=species:S:1:pos:R:3:forces:R:3 energy=-4.7392594213929335 pbc="F F F"
Ir       0.00000000       0.00000000       0.00000000       0.00000000       0.00000000       0.00195755
Ir       0.00000000       0.00000000       5.05939394       0.00000000       0.00000000      -0.00195755
2
Properties=species:S:1:pos:R:3:forces:R:3 energy=-4.7391028989870465 pbc="F F F"
Ir       0.00000000       0.00000000       0.00000000       0.00000000       0.00000000       0.00356612
Ir       0.00000000       0.00000000       5.11818182       0.00000000       0.00000000      -0.00356612
2
Properties=species:S:1:pos:R:3:forces:R:3 energy=-4.738823748194061 pbc="F F F"
Ir       0.00000000       0.00000000       0.00000000       0.00000000       0.00000000       0.00589510
Ir       0.00000000       0.00000000       5.17696970       0.00000000       0.00000000      -0.00589510
2
Properties=species:S:1:pos:R:3:forces:R:3 energy=-4.738400677412747 pbc="F F F"
Ir       0.00000000       0.00000000       0.00000000       0.00000000       0.00000000       0.00857965
Ir       0.00000000       0.00000000       5.23575758       0.00000000       0.00000000      -0.00857965
2
Properties=species:S:1:pos:R:3:forces:R:3 energy=-4.7378156680415495 pbc="F F F"
Ir       0.00000000       0.00000000       0.00000000       0.00000000       0.00000000       0.01125898
Ir       0.00000000       0.00000000       5.29454545       0.00000000       0.00000000      -0.01125898
2
Properties=species:S:1:pos:R:3:forces:R:3 energy=-4.7370846504478274 pbc="F F F"
Ir       0.00000000       0.00000000       0.00000000       0.00000000       0.00000000       0.01360889
Ir       0.00000000       0.00000000       5.35333333       0.00000000       0.00000000      -0.01360889
2
Properties=species:S:1:pos:R:3:forces:R:3 energy=-4.736227914721464 pbc="F F F"
Ir       0.00000000       0.00000000       0.00000000       0.00000000       0.00000000       0.01537995
Ir       0.00000000       0.00000000       5.41212121       0.00000000       0.00000000      -0.01537995
2
Properties=species:S:1:pos:R:3:forces:R:3 energy=-4.73529112318805 pbc="F F F"
Ir       0.00000000       0.00000000       0.00000000       0.00000000       0.00000000       0.01642804
Ir       0.00000000       0.00000000       5.47090909       0.00000000       0.00000000      -0.01642804
2
Properties=species:S:1:pos:R:3:forces:R:3 energy=-4.734310109990372 pbc="F F F"
Ir       0.00000000       0.00000000       0.00000000       0.00000000       0.00000000       0.01672560
Ir       0.00000000       0.00000000       5.52969697       0.00000000       0.00000000      -0.01672560
2
Properties=species:S:1:pos:R:3:forces:R:3 energy=-4.733332845692006 pbc="F F F"
Ir       0.00000000       0.00000000       0.00000000       0.00000000       0.00000000       0.01635470
Ir       0.00000000       0.00000000       5.58848485       0.00000000       0.00000000      -0.01635470
2
Properties=species:S:1:pos:R:3:forces:R:3 energy=-4.732398488120573 pbc="F F F"
Ir       0.00000000       0.00000000       0.00000000       0.00000000       0.00000000       0.01548078
Ir       0.00000000       0.00000000       5.64727273       0.00000000       0.00000000      -0.01548078
2
Properties=species:S:1:pos:R:3:forces:R:3 energy=-4.731522160008633 pbc="F F F"
Ir       0.00000000       0.00000000       0.00000000       0.00000000       0.00000000       0.01431419
Ir       0.00000000       0.00000000       5.70606061       0.00000000       0.00000000      -0.01431419
2
Properties=species:S:1:pos:R:3:forces:R:3 energy=-4.73071599635291 pbc="F F F"
Ir       0.00000000       0.00000000       0.00000000       0.00000000       0.00000000       0.01306801
Ir       0.00000000       0.00000000       5.76484848       0.00000000       0.00000000      -0.01306801
2
Properties=species:S:1:pos:R:3:forces:R:3 energy=-4.729982477405591 pbc="F F F"
Ir       0.00000000       0.00000000       0.00000000       0.00000000       0.00000000       0.01191766
Ir       0.00000000       0.00000000       5.82363636       0.00000000       0.00000000      -0.01191766
2
Properties=species:S:1:pos:R:3:forces:R:3 energy=-4.729312541124578 pbc="F F F"
Ir       0.00000000       0.00000000       0.00000000       0.00000000       0.00000000       0.01096703
Ir       0.00000000       0.00000000       5.88242424       0.00000000       0.00000000      -0.01096703
2
Properties=species:S:1:pos:R:3:forces:R:3 energy=-4.728690411733692 pbc="F F F"
Ir       0.00000000       0.00000000       0.00000000       0.00000000       0.00000000       0.01023166
Ir       0.00000000       0.00000000       5.94121212       0.00000000       0.00000000      -0.01023166
2
Properties=species:S:1:pos:R:3:forces:R:3 energy=-4.728105990361189 pbc="F F F"
Ir       0.00000000       0.00000000       0.00000000       0.00000000       0.00000000       0.00964539
Ir       0.00000000       0.00000000       6.00000000       0.00000000       0.00000000      -0.00964539
