2
Properties=species:S:1:pos:R:3:forces:R:3 energy=-7554.56958699344 pbc="F F F"
K        0.00000000       0.00000000       0.00000000       0.00000000       0.00000000  119027.09375000
K        0.00000000       0.00000000       0.18000000       0.00000000       0.00000000 -119027.09375000
2
Properties=species:S:1:pos:R:3:forces:R:3 energy=7624.92943644406 pbc="F F F"
K        0.00000000       0.00000000       0.00000000       0.00000000       0.00000000  227863.92187500
K        0.00000000       0.00000000       0.23878788       0.00000000       0.00000000 -227863.92187500
2
Properties=species:S:1:pos:R:3:forces:R:3 energy=12886.040276287811 pbc="F F F"
K        0.00000000       0.00000000       0.00000000       0.00000000       0.00000000  -17873.57226562
K        0.00000000       0.00000000       0.29757576       0.00000000       0.00000000   17873.57226562
2
Properties=species:S:1:pos:R:3:forces:R:3 energy=9125.135002851894 pbc="F F F"
K        0.00000000       0.00000000       0.00000000       0.00000000       0.00000000  -96188.71093750
K        0.00000000       0.00000000       0.35636364       0.00000000       0.00000000   96188.71093750
2
Properties=species:S:1:pos:R:3:forces:R:3 energy=4352.029534101895 pbc="F F F"
K        0.00000000       0.00000000       0.00000000       0.00000000       0.00000000  -66962.46093750
K        0.00000000       0.00000000       0.41515152       0.00000000       0.00000000   66962.46093750
2
Properties=species:S:1:pos:R:3:forces:R:3 energy=1477.0198905503748 pbc="F F F"
K        0.00000000       0.00000000       0.00000000       0.00000000       0.00000000  -29112.79101562
K        0.00000000       0.00000000       0.47393939       0.00000000       0.00000000   29112.79101562
2
Properties=species:S:1:pos:R:3:forces:R:3 energy=494.55019450862073 pbc="F F F"
K        0.00000000       0.00000000       0.00000000       0.00000000       0.00000000   -7945.99218750
K        0.00000000       0.00000000       0.53272727       0.00000000       0.00000000    7945.99218750
2
Properties=species:S:1:pos:R:3:forces:R:3 energy=241.21952129718295 pbc="F F F"
K        0.00000000       0.00000000       0.00000000       0.00000000       0.00000000   -2236.54272461
K        0.00000000       0.00000000       0.59151515       0.00000000       0.00000000    2236.54272461
2
Properties=species:S:1:pos:R:3:forces:R:3 energy=162.57151105278018 pbc="F F F"
K        0.00000000       0.00000000       0.00000000       0.00000000       0.00000000    -863.98431396
K        0.00000000       0.00000000       0.65030303       0.00000000       0.00000000     863.98431396
2
Properties=species:S:1:pos:R:3:forces:R:3 energy=112.50364760426382 pbc="F F F"
K        0.00000000       0.00000000       0.00000000       0.00000000       0.00000000    -841.37786865
K        0.00000000       0.00000000       0.70909091       0.00000000       0.00000000     841.37786865
2
Properties=species:S:1:pos:R:3:forces:R:3 energy=67.05933457712217 pbc="F F F"
K        0.00000000       0.00000000       0.00000000       0.00000000       0.00000000    -601.93945312
K        0.00000000       0.00000000       0.76787879       0.00000000       0.00000000     601.93945312
2
Properties=species:S:1:pos:R:3:forces:R:3 energy=42.75691685684126 pbc="F F F"
K        0.00000000       0.00000000       0.00000000       0.00000000       0.00000000    -232.76220703
K        0.00000000       0.00000000       0.82666667       0.00000000       0.00000000     232.76220703
2
Properties=species:S:1:pos:R:3:forces:R:3 energy=38.01092996904985 pbc="F F F"
K        0.00000000       0.00000000       0.00000000       0.00000000       0.00000000      54.03823471
K        0.00000000       0.00000000       0.88545455       0.00000000       0.00000000     -54.03823471
2
Properties=species:S:1:pos:R:3:forces:R:3 energy=44.375401474288815 pbc="F F F"
K        0.00000000       0.00000000       0.00000000       0.00000000       0.00000000     123.17564392
K        0.00000000       0.00000000       0.94424242       0.00000000       0.00000000    -123.17564392
2
Properties=species:S:1:pos:R:3:forces:R:3 energy=51.172776297833096 pbc="F F F"
K        0.00000000       0.00000000       0.00000000       0.00000000       0.00000000     100.58831787
K        0.00000000       0.00000000       1.00303030       0.00000000       0.00000000    -100.58831787
2
Properties=species:S:1:pos:R:3:forces:R:3 energy=56.127927031961846 pbc="F F F"
K        0.00000000       0.00000000       0.00000000       0.00000000       0.00000000      56.36381912
K        0.00000000       0.00000000       1.06181818       0.00000000       0.00000000     -56.36381912
2
Properties=species:S:1:pos:R:3:forces:R:3 energy=57.356507681045585 pbc="F F F"
K        0.00000000       0.00000000       0.00000000       0.00000000       0.00000000     -19.02455139
K        0.00000000       0.00000000       1.12060606       0.00000000       0.00000000      19.02455139
2
Properties=species:S:1:pos:R:3:forces:R:3 energy=54.65129245185939 pbc="F F F"
K        0.00000000       0.00000000       0.00000000       0.00000000       0.00000000     -63.17801285
K        0.00000000       0.00000000       1.17939394       0.00000000       0.00000000      63.17801285
2
Properties=species:S:1:pos:R:3:forces:R:3 energy=51.20174974719927 pbc="F F F"
K        0.00000000       0.00000000       0.00000000       0.00000000       0.00000000     -56.72258759
K        0.00000000       0.00000000       1.23818182       0.00000000       0.00000000      56.72258759
2
Properties=species:S:1:pos:R:3:forces:R:3 energy=47.11940606741042 pbc="F F F"
K        0.00000000       0.00000000       0.00000000       0.00000000       0.00000000     -82.76338196
K        0.00000000       0.00000000       1.29696970       0.00000000       0.00000000      82.76338196
2
Properties=species:S:1:pos:R:3:forces:R:3 energy=41.87934001267951 pbc="F F F"
K        0.00000000       0.00000000       0.00000000       0.00000000       0.00000000     -93.89911652
K        0.00000000       0.00000000       1.35575758       0.00000000       0.00000000      93.89911652
2
Properties=species:S:1:pos:R:3:forces:R:3 energy=36.157988984694924 pbc="F F F"
K        0.00000000       0.00000000       0.00000000       0.00000000       0.00000000     -98.72063446
K        0.00000000       0.00000000       1.41454545       0.00000000       0.00000000      98.72063446
2
Properties=species:S:1:pos:R:3:forces:R:3 energy=30.550914985248657 pbc="F F F"
K        0.00000000       0.00000000       0.00000000       0.00000000       0.00000000     -90.60433960
K        0.00000000       0.00000000       1.47333333       0.00000000       0.00000000      90.60433960
2
Properties=species:S:1:pos:R:3:forces:R:3 energy=25.531312165165566 pbc="F F F"
K        0.00000000       0.00000000       0.00000000       0.00000000       0.00000000     -79.81037903
K        0.00000000       0.00000000       1.53212121       0.00000000       0.00000000      79.81037903
2
Properties=species:S:1:pos:R:3:forces:R:3 energy=21.16898760873618 pbc="F F F"
K        0.00000000       0.00000000       0.00000000       0.00000000       0.00000000     -69.47754669
K        0.00000000       0.00000000       1.59090909       0.00000000       0.00000000      69.47754669
2
Properties=species:S:1:pos:R:3:forces:R:3 energy=17.36728646200659 pbc="F F F"
K        0.00000000       0.00000000       0.00000000       0.00000000       0.00000000     -59.08461380
K        0.00000000       0.00000000       1.64969697       0.00000000       0.00000000      59.08461380
2
Properties=species:S:1:pos:R:3:forces:R:3 energy=14.205239753591243 pbc="F F F"
K        0.00000000       0.00000000       0.00000000       0.00000000       0.00000000     -48.64076233
K        0.00000000       0.00000000       1.70848485       0.00000000       0.00000000      48.64076233
2
Properties=species:S:1:pos:R:3:forces:R:3 energy=11.685487301515293 pbc="F F F"
K        0.00000000       0.00000000       0.00000000       0.00000000       0.00000000     -37.52367401
K        0.00000000       0.00000000       1.76727273       0.00000000       0.00000000      37.52367401
2
Properties=species:S:1:pos:R:3:forces:R:3 energy=9.707946759002951 pbc="F F F"
K        0.00000000       0.00000000       0.00000000       0.00000000       0.00000000     -29.96405792
K        0.00000000       0.00000000       1.82606061       0.00000000       0.00000000      29.96405792
2
Properties=species:S:1:pos:R:3:forces:R:3 energy=8.137654196985025 pbc="F F F"
K        0.00000000       0.00000000       0.00000000       0.00000000       0.00000000     -23.66613197
K        0.00000000       0.00000000       1.88484848       0.00000000       0.00000000      23.66613197
2
Properties=species:S:1:pos:R:3:forces:R:3 energy=6.886481115243838 pbc="F F F"
K        0.00000000       0.00000000       0.00000000       0.00000000       0.00000000     -19.27185249
K        0.00000000       0.00000000       1.94363636       0.00000000       0.00000000      19.27185249
2
Properties=species:S:1:pos:R:3:forces:R:3 energy=5.8430756197813905 pbc="F F F"
K        0.00000000       0.00000000       0.00000000       0.00000000       0.00000000     -16.37195778
K        0.00000000       0.00000000       2.00242424       0.00000000       0.00000000      16.37195778
2
Properties=species:S:1:pos:R:3:forces:R:3 energy=4.940064040367063 pbc="F F F"
K        0.00000000       0.00000000       0.00000000       0.00000000       0.00000000     -14.55171204
K        0.00000000       0.00000000       2.06121212       0.00000000       0.00000000      14.55171204
2
Properties=species:S:1:pos:R:3:forces:R:3 energy=4.122673135011399 pbc="F F F"
K        0.00000000       0.00000000       0.00000000       0.00000000       0.00000000     -13.25912380
K        0.00000000       0.00000000       2.12000000       0.00000000       0.00000000      13.25912380
2
Properties=species:S:1:pos:R:3:forces:R:3 energy=3.3762269141973538 pbc="F F F"
K        0.00000000       0.00000000       0.00000000       0.00000000       0.00000000     -12.19343185
K        0.00000000       0.00000000       2.17878788       0.00000000       0.00000000      12.19343185
2
Properties=species:S:1:pos:R:3:forces:R:3 energy=2.6910914676865443 pbc="F F F"
K        0.00000000       0.00000000       0.00000000       0.00000000       0.00000000     -11.05205727
K        0.00000000       0.00000000       2.23757576       0.00000000       0.00000000      11.05205727
2
Properties=species:S:1:pos:R:3:forces:R:3 energy=2.079529263384386 pbc="F F F"
K        0.00000000       0.00000000       0.00000000       0.00000000       0.00000000      -9.75562668
K        0.00000000       0.00000000       2.29636364       0.00000000       0.00000000       9.75562668
2
Properties=species:S:1:pos:R:3:forces:R:3 energy=1.5443862048352095 pbc="F F F"
K        0.00000000       0.00000000       0.00000000       0.00000000       0.00000000      -8.44797230
K        0.00000000       0.00000000       2.35515152       0.00000000       0.00000000       8.44797230
2
Properties=species:S:1:pos:R:3:forces:R:3 energy=1.0858631877863483 pbc="F F F"
K        0.00000000       0.00000000       0.00000000       0.00000000       0.00000000      -7.15786505
K        0.00000000       0.00000000       2.41393939       0.00000000       0.00000000       7.15786505
2
Properties=species:S:1:pos:R:3:forces:R:3 energy=0.7011465466387978 pbc="F F F"
K        0.00000000       0.00000000       0.00000000       0.00000000       0.00000000      -5.95273829
K        0.00000000       0.00000000       2.47272727       0.00000000       0.00000000       5.95273829
2
Properties=species:S:1:pos:R:3:forces:R:3 energy=0.38306434951015417 pbc="F F F"
K        0.00000000       0.00000000       0.00000000       0.00000000       0.00000000      -4.89568663
K        0.00000000       0.00000000       2.53151515       0.00000000       0.00000000       4.89568663
2
Properties=species:S:1:pos:R:3:forces:R:3 energy=0.12162372915221606 pbc="F F F"
K        0.00000000       0.00000000       0.00000000       0.00000000       0.00000000      -4.03624630
K        0.00000000       0.00000000       2.59030303       0.00000000       0.00000000       4.03624630
2
Properties=species:S:1:pos:R:3:forces:R:3 energy=-0.09568781456974008 pbc="F F F"
K        0.00000000       0.00000000       0.00000000       0.00000000       0.00000000      -3.38792825
K        0.00000000       0.00000000       2.64909091       0.00000000       0.00000000       3.38792825
2
Properties=species:S:1:pos:R:3:forces:R:3 energy=-0.2796666068441991 pbc="F F F"
K        0.00000000       0.00000000       0.00000000       0.00000000       0.00000000      -2.89017534
K        0.00000000       0.00000000       2.70787879       0.00000000       0.00000000       2.89017534
2
Properties=species:S:1:pos:R:3:forces:R:3 energy=-0.4371850735491479 pbc="F F F"
K        0.00000000       0.00000000       0.00000000       0.00000000       0.00000000      -2.47978282
K        0.00000000       0.00000000       2.76666667       0.00000000       0.00000000       2.47978282
2
Properties=species:S:1:pos:R:3:forces:R:3 energy=-0.572388119346363 pbc="F F F"
K        0.00000000       0.00000000       0.00000000       0.00000000       0.00000000      -2.12932801
K        0.00000000       0.00000000       2.82545455       0.00000000       0.00000000       2.12932801
2
Properties=species:S:1:pos:R:3:forces:R:3 energy=-0.6886371753523829 pbc="F F F"
K        0.00000000       0.00000000       0.00000000       0.00000000       0.00000000      -1.83470857
K        0.00000000       0.00000000       2.88424242       0.00000000       0.00000000       1.83470857
2
Properties=species:S:1:pos:R:3:forces:R:3 energy=-0.789155434257377 pbc="F F F"
K        0.00000000       0.00000000       0.00000000       0.00000000       0.00000000      -1.59338510
K        0.00000000       0.00000000       2.94303030       0.00000000       0.00000000       1.59338510
2
Properties=species:S:1:pos:R:3:forces:R:3 energy=-0.8768609002989765 pbc="F F F"
K        0.00000000       0.00000000       0.00000000       0.00000000       0.00000000      -1.39684570
K        0.00000000       0.00000000       3.00181818       0.00000000       0.00000000       1.39684570
2
Properties=species:S:1:pos:R:3:forces:R:3 energy=-0.954027339035858 pbc="F F F"
K        0.00000000       0.00000000       0.00000000       0.00000000       0.00000000      -1.23302352
K        0.00000000       0.00000000       3.06060606       0.00000000       0.00000000       1.23302352
2
Properties=species:S:1:pos:R:3:forces:R:3 energy=-1.0223153984759143 pbc="F F F"
K        0.00000000       0.00000000       0.00000000       0.00000000       0.00000000      -1.09396708
K        0.00000000       0.00000000       3.11939394       0.00000000       0.00000000       1.09396708
2
Properties=species:S:1:pos:R:3:forces:R:3 energy=-1.0830896139196153 pbc="F F F"
K        0.00000000       0.00000000       0.00000000       0.00000000       0.00000000      -0.97726130
K        0.00000000       0.00000000       3.17818182       0.00000000       0.00000000       0.97726130
2
Properties=species:S:1:pos:R:3:forces:R:3 energy=-1.1376368706544648 pbc="F F F"
K        0.00000000       0.00000000       0.00000000       0.00000000       0.00000000      -0.88189143
K        0.00000000       0.00000000       3.23696970       0.00000000       0.00000000       0.88189143
2
Properties=species:S:1:pos:R:3:forces:R:3 energy=-1.1871511705085145 pbc="F F F"
K        0.00000000       0.00000000       0.00000000       0.00000000       0.00000000      -0.80550951
K        0.00000000       0.00000000       3.29575758       0.00000000       0.00000000       0.80550951
2
Properties=species:S:1:pos:R:3:forces:R:3 energy=-1.2326397250245085 pbc="F F F"
K        0.00000000       0.00000000       0.00000000       0.00000000       0.00000000      -0.74411708
K        0.00000000       0.00000000       3.35454545       0.00000000       0.00000000       0.74411708
2
Properties=species:S:1:pos:R:3:forces:R:3 energy=-1.2748321781698666 pbc="F F F"
K        0.00000000       0.00000000       0.00000000       0.00000000       0.00000000      -0.69243306
K        0.00000000       0.00000000       3.41333333       0.00000000       0.00000000       0.69243306
2
Properties=species:S:1:pos:R:3:forces:R:3 energy=-1.3141305812006716 pbc="F F F"
K        0.00000000       0.00000000       0.00000000       0.00000000       0.00000000      -0.64472926
K        0.00000000       0.00000000       3.47212121       0.00000000       0.00000000       0.64472926
2
Properties=species:S:1:pos:R:3:forces:R:3 energy=-1.3506237975628133 pbc="F F F"
K        0.00000000       0.00000000       0.00000000       0.00000000       0.00000000      -0.59645629
K        0.00000000       0.00000000       3.53090909       0.00000000       0.00000000       0.59645629
2
Properties=species:S:1:pos:R:3:forces:R:3 energy=-1.384208971990349 pbc="F F F"
K        0.00000000       0.00000000       0.00000000       0.00000000       0.00000000      -0.54567420
K        0.00000000       0.00000000       3.58969697       0.00000000       0.00000000       0.54567420
2
Properties=species:S:1:pos:R:3:forces:R:3 energy=-1.4147456851239542 pbc="F F F"
K        0.00000000       0.00000000       0.00000000       0.00000000       0.00000000      -0.49306625
K        0.00000000       0.00000000       3.64848485       0.00000000       0.00000000       0.49306625
2
Properties=species:S:1:pos:R:3:forces:R:3 energy=-1.4421871240791995 pbc="F F F"
K        0.00000000       0.00000000       0.00000000       0.00000000       0.00000000      -0.44078118
K        0.00000000       0.00000000       3.70727273       0.00000000       0.00000000       0.44078118
2
Properties=species:S:1:pos:R:3:forces:R:3 energy=-1.46662130268624 pbc="F F F"
K        0.00000000       0.00000000       0.00000000       0.00000000       0.00000000      -0.39105660
K        0.00000000       0.00000000       3.76606061       0.00000000       0.00000000       0.39105660
2
Properties=species:S:1:pos:R:3:forces:R:3 energy=-1.4882437874092005 pbc="F F F"
K        0.00000000       0.00000000       0.00000000       0.00000000       0.00000000      -0.34529075
K        0.00000000       0.00000000       3.82484848       0.00000000       0.00000000       0.34529075
2
Properties=species:S:1:pos:R:3:forces:R:3 energy=-1.507303742559458 pbc="F F F"
K        0.00000000       0.00000000       0.00000000       0.00000000       0.00000000      -0.30378237
K        0.00000000       0.00000000       3.88363636       0.00000000       0.00000000       0.30378237
2
Properties=species:S:1:pos:R:3:forces:R:3 energy=-1.524036025942251 pbc="F F F"
K        0.00000000       0.00000000       0.00000000       0.00000000       0.00000000      -0.26605234
K        0.00000000       0.00000000       3.94242424       0.00000000       0.00000000       0.26605234
2
Properties=species:S:1:pos:R:3:forces:R:3 energy=-1.5386442053809757 pbc="F F F"
K        0.00000000       0.00000000       0.00000000       0.00000000       0.00000000      -0.23140866
K        0.00000000       0.00000000       4.00121212       0.00000000       0.00000000       0.23140866
2
Properties=species:S:1:pos:R:3:forces:R:3 energy=-1.5512956829120943 pbc="F F F"
K        0.00000000       0.00000000       0.00000000       0.00000000       0.00000000      -0.19942501
K        0.00000000       0.00000000       4.06000000       0.00000000       0.00000000       0.19942501
2
Properties=species:S:1:pos:R:3:forces:R:3 energy=-1.5621453029289434 pbc="F F F"
K        0.00000000       0.00000000       0.00000000       0.00000000       0.00000000      -0.17015487
K        0.00000000       0.00000000       4.11878788       0.00000000       0.00000000       0.17015487
2
Properties=species:S:1:pos:R:3:forces:R:3 energy=-1.5713652410924246 pbc="F F F"
K        0.00000000       0.00000000       0.00000000       0.00000000       0.00000000      -0.14411141
K        0.00000000       0.00000000       4.17757576       0.00000000       0.00000000       0.14411141
2
Properties=species:S:1:pos:R:3:forces:R:3 energy=-1.5791689183948372 pbc="F F F"
K        0.00000000       0.00000000       0.00000000       0.00000000       0.00000000      -0.12218164
K        0.00000000       0.00000000       4.23636364       0.00000000       0.00000000       0.12218164
2
Properties=species:S:1:pos:R:3:forces:R:3 energy=-1.5858356347043743 pbc="F F F"
K        0.00000000       0.00000000       0.00000000       0.00000000       0.00000000      -0.10562322
K        0.00000000       0.00000000       4.29515152       0.00000000       0.00000000       0.10562322
2
Properties=species:S:1:pos:R:3:forces:R:3 energy=-1.5917270387228455 pbc="F F F"
K        0.00000000       0.00000000       0.00000000       0.00000000       0.00000000      -0.09621122
K        0.00000000       0.00000000       4.35393939       0.00000000       0.00000000       0.09621122
2
Properties=species:S:1:pos:R:3:forces:R:3 energy=-1.5973358776479674 pbc="F F F"
K        0.00000000       0.00000000       0.00000000       0.00000000       0.00000000      -0.09638991
K        0.00000000       0.00000000       4.41272727       0.00000000       0.00000000       0.09638991
2
Properties=species:S:1:pos:R:3:forces:R:3 energy=-1.6033043566897403 pbc="F F F"
K        0.00000000       0.00000000       0.00000000       0.00000000       0.00000000      -0.10897961
K        0.00000000       0.00000000       4.47151515       0.00000000       0.00000000       0.10897961
2
Properties=species:S:1:pos:R:3:forces:R:3 energy=-1.610425005259206 pbc="F F F"
K        0.00000000       0.00000000       0.00000000       0.00000000       0.00000000      -0.13553180
K        0.00000000       0.00000000       4.53030303       0.00000000       0.00000000       0.13553180
2
Properties=species:S:1:pos:R:3:forces:R:3 energy=-1.6194548177405423 pbc="F F F"
K        0.00000000       0.00000000       0.00000000       0.00000000       0.00000000      -0.17269965
K        0.00000000       0.00000000       4.58909091       0.00000000       0.00000000       0.17269965
2
Properties=species:S:1:pos:R:3:forces:R:3 energy=-1.6307126112315016 pbc="F F F"
K        0.00000000       0.00000000       0.00000000       0.00000000       0.00000000      -0.20869046
K        0.00000000       0.00000000       4.64787879       0.00000000       0.00000000       0.20869046
2
Properties=species:S:1:pos:R:3:forces:R:3 energy=-1.6436169037429789 pbc="F F F"
K        0.00000000       0.00000000       0.00000000       0.00000000       0.00000000      -0.22574481
K        0.00000000       0.00000000       4.70666667       0.00000000       0.00000000       0.22574481
2
Properties=species:S:1:pos:R:3:forces:R:3 energy=-1.6566192022331492 pbc="F F F"
K        0.00000000       0.00000000       0.00000000       0.00000000       0.00000000      -0.21092910
K        0.00000000       0.00000000       4.76545455       0.00000000       0.00000000       0.21092910
2
Properties=species:S:1:pos:R:3:forces:R:3 energy=-1.667808265993657 pbc="F F F"
K        0.00000000       0.00000000       0.00000000       0.00000000       0.00000000      -0.16549045
K        0.00000000       0.00000000       4.82424242       0.00000000       0.00000000       0.16549045
2
Properties=species:S:1:pos:R:3:forces:R:3 energy=-1.675729682300732 pbc="F F F"
K        0.00000000       0.00000000       0.00000000       0.00000000       0.00000000      -0.10238519
K        0.00000000       0.00000000       4.88303030       0.00000000       0.00000000       0.10238519
2
Properties=species:S:1:pos:R:3:forces:R:3 energy=-1.6797945254552895 pbc="F F F"
K        0.00000000       0.00000000       0.00000000       0.00000000       0.00000000      -0.03638456
K        0.00000000       0.00000000       4.94181818       0.00000000       0.00000000       0.03638456
2
Properties=species:S:1:pos:R:3:forces:R:3 energy=-1.6801480125737016 pbc="F F F"
K        0.00000000       0.00000000       0.00000000       0.00000000       0.00000000       0.02267600
K        0.00000000       0.00000000       5.00060606       0.00000000       0.00000000      -0.02267600
2
Properties=species:S:1:pos:R:3:forces:R:3 energy=-1.6773459027449285 pbc="F F F"
K        0.00000000       0.00000000       0.00000000       0.00000000       0.00000000       0.07065721
K        0.00000000       0.00000000       5.05939394       0.00000000       0.00000000      -0.07065721
2
Properties=species:S:1:pos:R:3:forces:R:3 energy=-1.6720683193053447 pbc="F F F"
K        0.00000000       0.00000000       0.00000000       0.00000000       0.00000000       0.10700349
K        0.00000000       0.00000000       5.11818182       0.00000000       0.00000000      -0.10700349
2
Properties=species:S:1:pos:R:3:forces:R:3 energy=-1.664975751905708 pbc="F F F"
K        0.00000000       0.00000000       0.00000000       0.00000000       0.00000000       0.13266535
K        0.00000000       0.00000000       5.17696970       0.00000000       0.00000000      -0.13266535
2
Properties=species:S:1:pos:R:3:forces:R:3 energy=-1.656654340895252 pbc="F F F"
K        0.00000000       0.00000000       0.00000000       0.00000000       0.00000000       0.14893879
K        0.00000000       0.00000000       5.23575758       0.00000000       0.00000000      -0.14893879
2
Properties=species:S:1:pos:R:3:forces:R:3 energy=-1.6476235133715618 pbc="F F F"
K        0.00000000       0.00000000       0.00000000       0.00000000       0.00000000       0.15705574
K        0.00000000       0.00000000       5.29454545       0.00000000       0.00000000      -0.15705574
2
Properties=species:S:1:pos:R:3:forces:R:3 energy=-1.6383255699132668 pbc="F F F"
K        0.00000000       0.00000000       0.00000000       0.00000000       0.00000000       0.15817973
K        0.00000000       0.00000000       5.35333333       0.00000000       0.00000000      -0.15817973
2
Properties=species:S:1:pos:R:3:forces:R:3 energy=-1.6291399831701183 pbc="F F F"
K        0.00000000       0.00000000       0.00000000       0.00000000       0.00000000       0.15350795
K        0.00000000       0.00000000       5.41212121       0.00000000       0.00000000      -0.15350795
2
Properties=species:S:1:pos:R:3:forces:R:3 energy=-1.62036439119145 pbc="F F F"
K        0.00000000       0.00000000       0.00000000       0.00000000       0.00000000       0.14437248
K        0.00000000       0.00000000       5.47090909       0.00000000       0.00000000      -0.14437248
2
Properties=species:S:1:pos:R:3:forces:R:3 energy=-1.612222682413037 pbc="F F F"
K        0.00000000       0.00000000       0.00000000       0.00000000       0.00000000       0.13225213
K        0.00000000       0.00000000       5.52969697       0.00000000       0.00000000      -0.13225213
2
Properties=species:S:1:pos:R:3:forces:R:3 energy=-1.6048445344103044 pbc="F F F"
K        0.00000000       0.00000000       0.00000000       0.00000000       0.00000000       0.11868908
K        0.00000000       0.00000000       5.58848485       0.00000000       0.00000000      -0.11868908
2
Properties=species:S:1:pos:R:3:forces:R:3 energy=-1.5982669708356563 pbc="F F F"
K        0.00000000       0.00000000       0.00000000       0.00000000       0.00000000       0.10517562
K        0.00000000       0.00000000       5.64727273       0.00000000       0.00000000      -0.10517562
2
Properties=species:S:1:pos:R:3:forces:R:3 energy=-1.5924519140631417 pbc="F F F"
K        0.00000000       0.00000000       0.00000000       0.00000000       0.00000000       0.09295225
K        0.00000000       0.00000000       5.70606061       0.00000000       0.00000000      -0.09295225
2
Properties=species:S:1:pos:R:3:forces:R:3 energy=-1.5872925158085744 pbc="F F F"
K        0.00000000       0.00000000       0.00000000       0.00000000       0.00000000       0.08290985
K        0.00000000       0.00000000       5.76484848       0.00000000       0.00000000      -0.08290985
2
Properties=species:S:1:pos:R:3:forces:R:3 energy=-1.5826505361777616 pbc="F F F"
K        0.00000000       0.00000000       0.00000000       0.00000000       0.00000000       0.07547646
K        0.00000000       0.00000000       5.82363636       0.00000000       0.00000000      -0.07547646
2
Properties=species:S:1:pos:R:3:forces:R:3 energy=-1.5783704307137398 pbc="F F F"
K        0.00000000       0.00000000       0.00000000       0.00000000       0.00000000       0.07056571
K        0.00000000       0.00000000       5.88242424       0.00000000       0.00000000      -0.07056571
2
Properties=species:S:1:pos:R:3:forces:R:3 energy=-1.5743160998803138 pbc="F F F"
K        0.00000000       0.00000000       0.00000000       0.00000000       0.00000000       0.06762405
K        0.00000000       0.00000000       5.94121212       0.00000000       0.00000000      -0.06762405
2
Properties=species:S:1:pos:R:3:forces:R:3 energy=-1.5703981748221927 pbc="F F F"
K        0.00000000       0.00000000       0.00000000       0.00000000       0.00000000       0.06572454
K        0.00000000       0.00000000       6.00000000       0.00000000       0.00000000      -0.06572454
