2
Properties=species:S:1:pos:R:3:forces:R:3 energy=-3151.276779071712 pbc="F F F"
Li       0.00000000       0.00000000       0.00000000       0.00000000       0.00000000   28684.31250000
Li       0.00000000       0.00000000       0.18000000       0.00000000       0.00000000  -28684.31250000
2
Properties=species:S:1:pos:R:3:forces:R:3 energy=-1674.2310027045246 pbc="F F F"
Li       0.00000000       0.00000000       0.00000000       0.00000000       0.00000000   20855.77929688
Li       0.00000000       0.00000000       0.23878788       0.00000000       0.00000000  -20855.77929688
2
Properties=species:S:1:pos:R:3:forces:R:3 energy=-723.6522063178058 pbc="F F F"
Li       0.00000000       0.00000000       0.00000000       0.00000000       0.00000000   11668.97753906
Li       0.00000000       0.00000000       0.29757576       0.00000000       0.00000000  -11668.97753906
2
Properties=species:S:1:pos:R:3:forces:R:3 energy=-251.36117543243287 pbc="F F F"
Li       0.00000000       0.00000000       0.00000000       0.00000000       0.00000000    4998.14648438
Li       0.00000000       0.00000000       0.35636364       0.00000000       0.00000000   -4998.14648438
2
Properties=species:S:1:pos:R:3:forces:R:3 energy=-69.32212818647021 pbc="F F F"
Li       0.00000000       0.00000000       0.00000000       0.00000000       0.00000000    1623.83837891
Li       0.00000000       0.00000000       0.41515152       0.00000000       0.00000000   -1623.83837891
2
Properties=species:S:1:pos:R:3:forces:R:3 energy=3.60067474655921 pbc="F F F"
Li       0.00000000       0.00000000       0.00000000       0.00000000       0.00000000    1064.69506836
Li       0.00000000       0.00000000       0.47393939       0.00000000       0.00000000   -1064.69506836
2
Properties=species:S:1:pos:R:3:forces:R:3 energy=41.118316781993606 pbc="F F F"
Li       0.00000000       0.00000000       0.00000000       0.00000000       0.00000000     185.11624146
Li       0.00000000       0.00000000       0.53272727       0.00000000       0.00000000    -185.11624146
2
Properties=species:S:1:pos:R:3:forces:R:3 energy=36.42395035225806 pbc="F F F"
Li       0.00000000       0.00000000       0.00000000       0.00000000       0.00000000    -217.40469360
Li       0.00000000       0.00000000       0.59151515       0.00000000       0.00000000     217.40469360
2
Properties=species:S:1:pos:R:3:forces:R:3 energy=23.206131182740382 pbc="F F F"
Li       0.00000000       0.00000000       0.00000000       0.00000000       0.00000000    -189.88391113
Li       0.00000000       0.00000000       0.65030303       0.00000000       0.00000000     189.88391113
2
Properties=species:S:1:pos:R:3:forces:R:3 energy=15.708818706656103 pbc="F F F"
Li       0.00000000       0.00000000       0.00000000       0.00000000       0.00000000     -88.23368073
Li       0.00000000       0.00000000       0.70909091       0.00000000       0.00000000      88.23368073
2
Properties=species:S:1:pos:R:3:forces:R:3 energy=11.501100915686422 pbc="F F F"
Li       0.00000000       0.00000000       0.00000000       0.00000000       0.00000000     -58.39267349
Li       0.00000000       0.00000000       0.76787879       0.00000000       0.00000000      58.39267349
2
Properties=species:S:1:pos:R:3:forces:R:3 energy=8.612153582448355 pbc="F F F"
Li       0.00000000       0.00000000       0.00000000       0.00000000       0.00000000     -39.96481705
Li       0.00000000       0.00000000       0.82666667       0.00000000       0.00000000      39.96481705
2
Properties=species:S:1:pos:R:3:forces:R:3 energy=6.49817351092198 pbc="F F F"
Li       0.00000000       0.00000000       0.00000000       0.00000000       0.00000000     -28.51309967
Li       0.00000000       0.00000000       0.88545455       0.00000000       0.00000000      28.51309967
2
Properties=species:S:1:pos:R:3:forces:R:3 energy=5.174649344686983 pbc="F F F"
Li       0.00000000       0.00000000       0.00000000       0.00000000       0.00000000     -17.65395737
Li       0.00000000       0.00000000       0.94424242       0.00000000       0.00000000      17.65395737
2
Properties=species:S:1:pos:R:3:forces:R:3 energy=4.339217719730668 pbc="F F F"
Li       0.00000000       0.00000000       0.00000000       0.00000000       0.00000000     -11.09719181
Li       0.00000000       0.00000000       1.00303030       0.00000000       0.00000000      11.09719181
2
Properties=species:S:1:pos:R:3:forces:R:3 energy=3.8505746484501535 pbc="F F F"
Li       0.00000000       0.00000000       0.00000000       0.00000000       0.00000000      -6.13263226
Li       0.00000000       0.00000000       1.06181818       0.00000000       0.00000000       6.13263226
2
Properties=species:S:1:pos:R:3:forces:R:3 energy=3.463716471770779 pbc="F F F"
Li       0.00000000       0.00000000       0.00000000       0.00000000       0.00000000      -7.48084307
Li       0.00000000       0.00000000       1.12060606       0.00000000       0.00000000       7.48084307
2
Properties=species:S:1:pos:R:3:forces:R:3 energy=2.9999895201688624 pbc="F F F"
Li       0.00000000       0.00000000       0.00000000       0.00000000       0.00000000      -7.80162191
Li       0.00000000       0.00000000       1.17939394       0.00000000       0.00000000       7.80162191
2
Properties=species:S:1:pos:R:3:forces:R:3 energy=2.5706695251617098 pbc="F F F"
Li       0.00000000       0.00000000       0.00000000       0.00000000       0.00000000      -6.66585541
Li       0.00000000       0.00000000       1.23818182       0.00000000       0.00000000       6.66585541
2
Properties=species:S:1:pos:R:3:forces:R:3 energy=2.214984035762503 pbc="F F F"
Li       0.00000000       0.00000000       0.00000000       0.00000000       0.00000000      -5.43022537
Li       0.00000000       0.00000000       1.29696970       0.00000000       0.00000000       5.43022537
2
Properties=species:S:1:pos:R:3:forces:R:3 energy=1.906031887633519 pbc="F F F"
Li       0.00000000       0.00000000       0.00000000       0.00000000       0.00000000      -5.17281103
Li       0.00000000       0.00000000       1.35575758       0.00000000       0.00000000       5.17281103
2
Properties=species:S:1:pos:R:3:forces:R:3 energy=1.600648917822826 pbc="F F F"
Li       0.00000000       0.00000000       0.00000000       0.00000000       0.00000000      -5.15541983
Li       0.00000000       0.00000000       1.41454545       0.00000000       0.00000000       5.15541983
2
Properties=species:S:1:pos:R:3:forces:R:3 energy=1.2984966764862305 pbc="F F F"
Li       0.00000000       0.00000000       0.00000000       0.00000000       0.00000000      -5.09414625
Li       0.00000000       0.00000000       1.47333333       0.00000000       0.00000000       5.09414625
2
Properties=species:S:1:pos:R:3:forces:R:3 energy=1.0052639481305155 pbc="F F F"
Li       0.00000000       0.00000000       0.00000000       0.00000000       0.00000000      -4.87447882
Li       0.00000000       0.00000000       1.53212121       0.00000000       0.00000000       4.87447882
2
Properties=species:S:1:pos:R:3:forces:R:3 energy=0.7266214243769398 pbc="F F F"
Li       0.00000000       0.00000000       0.00000000       0.00000000       0.00000000      -4.63913727
Li       0.00000000       0.00000000       1.59090909       0.00000000       0.00000000       4.63913727
2
Properties=species:S:1:pos:R:3:forces:R:3 energy=0.45668890144600605 pbc="F F F"
Li       0.00000000       0.00000000       0.00000000       0.00000000       0.00000000      -4.49284124
Li       0.00000000       0.00000000       1.64969697       0.00000000       0.00000000       4.49284124
2
Properties=species:S:1:pos:R:3:forces:R:3 energy=0.2015252465000611 pbc="F F F"
Li       0.00000000       0.00000000       0.00000000       0.00000000       0.00000000      -4.18494177
Li       0.00000000       0.00000000       1.70848485       0.00000000       0.00000000       4.18494177
2
Properties=species:S:1:pos:R:3:forces:R:3 energy=-0.03614231234815818 pbc="F F F"
Li       0.00000000       0.00000000       0.00000000       0.00000000       0.00000000      -3.95468283
Li       0.00000000       0.00000000       1.76727273       0.00000000       0.00000000       3.95468283
2
Properties=species:S:1:pos:R:3:forces:R:3 energy=-0.2717516411046412 pbc="F F F"
Li       0.00000000       0.00000000       0.00000000       0.00000000       0.00000000      -4.05763626
Li       0.00000000       0.00000000       1.82606061       0.00000000       0.00000000       4.05763626
2
Properties=species:S:1:pos:R:3:forces:R:3 energy=-0.5040655960978143 pbc="F F F"
Li       0.00000000       0.00000000       0.00000000       0.00000000       0.00000000      -3.81542611
Li       0.00000000       0.00000000       1.88484848       0.00000000       0.00000000       3.81542611
2
Properties=species:S:1:pos:R:3:forces:R:3 energy=-0.7202036239271002 pbc="F F F"
Li       0.00000000       0.00000000       0.00000000       0.00000000       0.00000000      -3.51603699
Li       0.00000000       0.00000000       1.94363636       0.00000000       0.00000000       3.51603699
2
Properties=species:S:1:pos:R:3:forces:R:3 energy=-0.9163350857922135 pbc="F F F"
Li       0.00000000       0.00000000       0.00000000       0.00000000       0.00000000      -3.13805842
Li       0.00000000       0.00000000       2.00242424       0.00000000       0.00000000       3.13805842
2
Properties=species:S:1:pos:R:3:forces:R:3 energy=-1.0854512485760222 pbc="F F F"
Li       0.00000000       0.00000000       0.00000000       0.00000000       0.00000000      -2.60435247
Li       0.00000000       0.00000000       2.06121212       0.00000000       0.00000000       2.60435247
2
Properties=species:S:1:pos:R:3:forces:R:3 energy=-1.2247859244869024 pbc="F F F"
Li       0.00000000       0.00000000       0.00000000       0.00000000       0.00000000      -2.15474606
Li       0.00000000       0.00000000       2.12000000       0.00000000       0.00000000       2.15474606
2
Properties=species:S:1:pos:R:3:forces:R:3 energy=-1.3407760460293912 pbc="F F F"
Li       0.00000000       0.00000000       0.00000000       0.00000000       0.00000000      -1.81035352
Li       0.00000000       0.00000000       2.17878788       0.00000000       0.00000000       1.81035352
2
Properties=species:S:1:pos:R:3:forces:R:3 energy=-1.4381040922445862 pbc="F F F"
Li       0.00000000       0.00000000       0.00000000       0.00000000       0.00000000      -1.49990296
Li       0.00000000       0.00000000       2.23757576       0.00000000       0.00000000       1.49990296
2
Properties=species:S:1:pos:R:3:forces:R:3 energy=-1.5189605863531577 pbc="F F F"
Li       0.00000000       0.00000000       0.00000000       0.00000000       0.00000000      -1.26974177
Li       0.00000000       0.00000000       2.29636364       0.00000000       0.00000000       1.26974177
2
Properties=species:S:1:pos:R:3:forces:R:3 energy=-1.5883067367303385 pbc="F F F"
Li       0.00000000       0.00000000       0.00000000       0.00000000       0.00000000      -1.09226382
Li       0.00000000       0.00000000       2.35515152       0.00000000       0.00000000       1.09226382
2
Properties=species:S:1:pos:R:3:forces:R:3 energy=-1.648028321399586 pbc="F F F"
Li       0.00000000       0.00000000       0.00000000       0.00000000       0.00000000      -0.94626647
Li       0.00000000       0.00000000       2.41393939       0.00000000       0.00000000       0.94626647
2
Properties=species:S:1:pos:R:3:forces:R:3 energy=-1.7005430909351722 pbc="F F F"
Li       0.00000000       0.00000000       0.00000000       0.00000000       0.00000000      -0.84961253
Li       0.00000000       0.00000000       2.47272727       0.00000000       0.00000000       0.84961253
2
Properties=species:S:1:pos:R:3:forces:R:3 energy=-1.748185193705849 pbc="F F F"
Li       0.00000000       0.00000000       0.00000000       0.00000000       0.00000000      -0.76433271
Li       0.00000000       0.00000000       2.53151515       0.00000000       0.00000000       0.76433271
2
Properties=species:S:1:pos:R:3:forces:R:3 energy=-1.7895185273214402 pbc="F F F"
Li       0.00000000       0.00000000       0.00000000       0.00000000       0.00000000      -0.63920701
Li       0.00000000       0.00000000       2.59030303       0.00000000       0.00000000       0.63920701
2
Properties=species:S:1:pos:R:3:forces:R:3 energy=-1.8236866510349499 pbc="F F F"
Li       0.00000000       0.00000000       0.00000000       0.00000000       0.00000000      -0.52927524
Li       0.00000000       0.00000000       2.64909091       0.00000000       0.00000000       0.52927524
2
Properties=species:S:1:pos:R:3:forces:R:3 energy=-1.8523665228369732 pbc="F F F"
Li       0.00000000       0.00000000       0.00000000       0.00000000       0.00000000      -0.44941011
Li       0.00000000       0.00000000       2.70787879       0.00000000       0.00000000       0.44941011
2
Properties=species:S:1:pos:R:3:forces:R:3 energy=-1.8766887108707955 pbc="F F F"
Li       0.00000000       0.00000000       0.00000000       0.00000000       0.00000000      -0.37927991
Li       0.00000000       0.00000000       2.76666667       0.00000000       0.00000000       0.37927991
2
Properties=species:S:1:pos:R:3:forces:R:3 energy=-1.897247596333543 pbc="F F F"
Li       0.00000000       0.00000000       0.00000000       0.00000000       0.00000000      -0.32372925
Li       0.00000000       0.00000000       2.82545455       0.00000000       0.00000000       0.32372925
2
Properties=species:S:1:pos:R:3:forces:R:3 energy=-1.9152091198148773 pbc="F F F"
Li       0.00000000       0.00000000       0.00000000       0.00000000       0.00000000      -0.29107839
Li       0.00000000       0.00000000       2.88424242       0.00000000       0.00000000       0.29107839
2
Properties=species:S:1:pos:R:3:forces:R:3 energy=-1.9318606509061842 pbc="F F F"
Li       0.00000000       0.00000000       0.00000000       0.00000000       0.00000000      -0.27837297
Li       0.00000000       0.00000000       2.94303030       0.00000000       0.00000000       0.27837297
2
Properties=species:S:1:pos:R:3:forces:R:3 energy=-1.9483022545034483 pbc="F F F"
Li       0.00000000       0.00000000       0.00000000       0.00000000       0.00000000      -0.28459394
Li       0.00000000       0.00000000       3.00181818       0.00000000       0.00000000       0.28459394
2
Properties=species:S:1:pos:R:3:forces:R:3 energy=-1.965865257764225 pbc="F F F"
Li       0.00000000       0.00000000       0.00000000       0.00000000       0.00000000      -0.31868500
Li       0.00000000       0.00000000       3.06060606       0.00000000       0.00000000       0.31868500
2
Properties=species:S:1:pos:R:3:forces:R:3 energy=-1.986499667064424 pbc="F F F"
Li       0.00000000       0.00000000       0.00000000       0.00000000       0.00000000      -0.38855743
Li       0.00000000       0.00000000       3.11939394       0.00000000       0.00000000       0.38855743
2
Properties=species:S:1:pos:R:3:forces:R:3 energy=-2.0117258559686904 pbc="F F F"
Li       0.00000000       0.00000000       0.00000000       0.00000000       0.00000000      -0.46553424
Li       0.00000000       0.00000000       3.17818182       0.00000000       0.00000000       0.46553424
2
Properties=species:S:1:pos:R:3:forces:R:3 energy=-2.040008740791418 pbc="F F F"
Li       0.00000000       0.00000000       0.00000000       0.00000000       0.00000000      -0.48153183
Li       0.00000000       0.00000000       3.23696970       0.00000000       0.00000000       0.48153183
2
Properties=species:S:1:pos:R:3:forces:R:3 energy=-2.0665301388470962 pbc="F F F"
Li       0.00000000       0.00000000       0.00000000       0.00000000       0.00000000      -0.40801668
Li       0.00000000       0.00000000       3.29575758       0.00000000       0.00000000       0.40801668
2
Properties=species:S:1:pos:R:3:forces:R:3 energy=-2.0870760095175305 pbc="F F F"
Li       0.00000000       0.00000000       0.00000000       0.00000000       0.00000000      -0.28830400
Li       0.00000000       0.00000000       3.35454545       0.00000000       0.00000000       0.28830400
2
Properties=species:S:1:pos:R:3:forces:R:3 energy=-2.1005392619264303 pbc="F F F"
Li       0.00000000       0.00000000       0.00000000       0.00000000       0.00000000      -0.17305031
Li       0.00000000       0.00000000       3.41333333       0.00000000       0.00000000       0.17305031
2
Properties=species:S:1:pos:R:3:forces:R:3 energy=-2.107912398046453 pbc="F F F"
Li       0.00000000       0.00000000       0.00000000       0.00000000       0.00000000      -0.08207948
Li       0.00000000       0.00000000       3.47212121       0.00000000       0.00000000       0.08207948
2
Properties=species:S:1:pos:R:3:forces:R:3 energy=-2.110652639424699 pbc="F F F"
Li       0.00000000       0.00000000       0.00000000       0.00000000       0.00000000      -0.01455843
Li       0.00000000       0.00000000       3.53090909       0.00000000       0.00000000       0.01455843
2
Properties=species:S:1:pos:R:3:forces:R:3 energy=-2.1099606645687627 pbc="F F F"
Li       0.00000000       0.00000000       0.00000000       0.00000000       0.00000000       0.03570653
Li       0.00000000       0.00000000       3.58969697       0.00000000       0.00000000      -0.03570653
2
Properties=species:S:1:pos:R:3:forces:R:3 energy=-2.1066888366887344 pbc="F F F"
Li       0.00000000       0.00000000       0.00000000       0.00000000       0.00000000       0.07391158
Li       0.00000000       0.00000000       3.64848485       0.00000000       0.00000000      -0.07391158
2
Properties=species:S:1:pos:R:3:forces:R:3 energy=-2.101443576955932 pbc="F F F"
Li       0.00000000       0.00000000       0.00000000       0.00000000       0.00000000       0.10330623
Li       0.00000000       0.00000000       3.70727273       0.00000000       0.00000000      -0.10330623
2
Properties=species:S:1:pos:R:3:forces:R:3 energy=-2.0946769806730274 pbc="F F F"
Li       0.00000000       0.00000000       0.00000000       0.00000000       0.00000000       0.12581037
Li       0.00000000       0.00000000       3.76606061       0.00000000       0.00000000      -0.12581037
2
Properties=species:S:1:pos:R:3:forces:R:3 energy=-2.0867609903256574 pbc="F F F"
Li       0.00000000       0.00000000       0.00000000       0.00000000       0.00000000       0.14264330
Li       0.00000000       0.00000000       3.82484848       0.00000000       0.00000000      -0.14264330
2
Properties=species:S:1:pos:R:3:forces:R:3 energy=-2.0779997776762613 pbc="F F F"
Li       0.00000000       0.00000000       0.00000000       0.00000000       0.00000000       0.15466811
Li       0.00000000       0.00000000       3.88363636       0.00000000       0.00000000      -0.15466811
2
Properties=species:S:1:pos:R:3:forces:R:3 energy=-2.068657737968251 pbc="F F F"
Li       0.00000000       0.00000000       0.00000000       0.00000000       0.00000000       0.16253890
Li       0.00000000       0.00000000       3.94242424       0.00000000       0.00000000      -0.16253890
2
Properties=species:S:1:pos:R:3:forces:R:3 energy=-2.0589605137427927 pbc="F F F"
Li       0.00000000       0.00000000       0.00000000       0.00000000       0.00000000       0.16680767
Li       0.00000000       0.00000000       4.00121212       0.00000000       0.00000000      -0.16680767
2
Properties=species:S:1:pos:R:3:forces:R:3 energy=-2.0491048737720963 pbc="F F F"
Li       0.00000000       0.00000000       0.00000000       0.00000000       0.00000000       0.16804737
Li       0.00000000       0.00000000       4.06000000       0.00000000       0.00000000      -0.16804737
2
Properties=species:S:1:pos:R:3:forces:R:3 energy=-2.0392477084956497 pbc="F F F"
Li       0.00000000       0.00000000       0.00000000       0.00000000       0.00000000       0.16692626
Li       0.00000000       0.00000000       4.11878788       0.00000000       0.00000000      -0.16692626
2
Properties=species:S:1:pos:R:3:forces:R:3 energy=-2.0295095653097364 pbc="F F F"
Li       0.00000000       0.00000000       0.00000000       0.00000000       0.00000000       0.16415781
Li       0.00000000       0.00000000       4.17757576       0.00000000       0.00000000      -0.16415781
2
Properties=species:S:1:pos:R:3:forces:R:3 energy=-2.0199667464204976 pbc="F F F"
Li       0.00000000       0.00000000       0.00000000       0.00000000       0.00000000       0.16037889
Li       0.00000000       0.00000000       4.23636364       0.00000000       0.00000000      -0.16037889
2
Properties=species:S:1:pos:R:3:forces:R:3 energy=-2.0106637539675307 pbc="F F F"
Li       0.00000000       0.00000000       0.00000000       0.00000000       0.00000000       0.15605640
Li       0.00000000       0.00000000       4.29515152       0.00000000       0.00000000      -0.15605640
2
Properties=species:S:1:pos:R:3:forces:R:3 energy=-2.001623587044366 pbc="F F F"
Li       0.00000000       0.00000000       0.00000000       0.00000000       0.00000000       0.15148184
Li       0.00000000       0.00000000       4.35393939       0.00000000       0.00000000      -0.15148184
2
Properties=species:S:1:pos:R:3:forces:R:3 energy=-1.9928549449409962 pbc="F F F"
Li       0.00000000       0.00000000       0.00000000       0.00000000       0.00000000       0.14681980
Li       0.00000000       0.00000000       4.41272727       0.00000000       0.00000000      -0.14681980
2
Properties=species:S:1:pos:R:3:forces:R:3 energy=-1.9843602240057763 pbc="F F F"
Li       0.00000000       0.00000000       0.00000000       0.00000000       0.00000000       0.14215960
Li       0.00000000       0.00000000       4.47151515       0.00000000       0.00000000      -0.14215960
2
Properties=species:S:1:pos:R:3:forces:R:3 energy=-1.9761393070001112 pbc="F F F"
Li       0.00000000       0.00000000       0.00000000       0.00000000       0.00000000       0.13754110
Li       0.00000000       0.00000000       4.53030303       0.00000000       0.00000000      -0.13754110
2
Properties=species:S:1:pos:R:3:forces:R:3 energy=-1.9681887361370265 pbc="F F F"
Li       0.00000000       0.00000000       0.00000000       0.00000000       0.00000000       0.13296589
Li       0.00000000       0.00000000       4.58909091       0.00000000       0.00000000      -0.13296589
2
Properties=species:S:1:pos:R:3:forces:R:3 energy=-1.960505164982872 pbc="F F F"
Li       0.00000000       0.00000000       0.00000000       0.00000000       0.00000000       0.12841137
Li       0.00000000       0.00000000       4.64787879       0.00000000       0.00000000      -0.12841137
2
Properties=species:S:1:pos:R:3:forces:R:3 energy=-1.9530901775140588 pbc="F F F"
Li       0.00000000       0.00000000       0.00000000       0.00000000       0.00000000       0.12385359
Li       0.00000000       0.00000000       4.70666667       0.00000000       0.00000000      -0.12385359
2
Properties=species:S:1:pos:R:3:forces:R:3 energy=-1.9459429374908777 pbc="F F F"
Li       0.00000000       0.00000000       0.00000000       0.00000000       0.00000000       0.11929387
Li       0.00000000       0.00000000       4.76545455       0.00000000       0.00000000      -0.11929387
2
Properties=species:S:1:pos:R:3:forces:R:3 energy=-1.9390631635220437 pbc="F F F"
Li       0.00000000       0.00000000       0.00000000       0.00000000       0.00000000       0.11477439
Li       0.00000000       0.00000000       4.82424242       0.00000000       0.00000000      -0.11477439
2
Properties=species:S:1:pos:R:3:forces:R:3 energy=-1.9324470656134696 pbc="F F F"
Li       0.00000000       0.00000000       0.00000000       0.00000000       0.00000000       0.11036877
Li       0.00000000       0.00000000       4.88303030       0.00000000       0.00000000      -0.11036877
2
Properties=species:S:1:pos:R:3:forces:R:3 energy=-1.9260836951977494 pbc="F F F"
Li       0.00000000       0.00000000       0.00000000       0.00000000       0.00000000       0.10615192
Li       0.00000000       0.00000000       4.94181818       0.00000000       0.00000000      -0.10615192
2
Properties=species:S:1:pos:R:3:forces:R:3 energy=-1.919960914270186 pbc="F F F"
Li       0.00000000       0.00000000       0.00000000       0.00000000       0.00000000       0.10215858
Li       0.00000000       0.00000000       5.00060606       0.00000000       0.00000000      -0.10215858
2
Properties=species:S:1:pos:R:3:forces:R:3 energy=-1.9140681533775952 pbc="F F F"
Li       0.00000000       0.00000000       0.00000000       0.00000000       0.00000000       0.09834608
Li       0.00000000       0.00000000       5.05939394       0.00000000       0.00000000      -0.09834608
2
Properties=species:S:1:pos:R:3:forces:R:3 energy=-1.9083973399500447 pbc="F F F"
Li       0.00000000       0.00000000       0.00000000       0.00000000       0.00000000       0.09457900
Li       0.00000000       0.00000000       5.11818182       0.00000000       0.00000000      -0.09457900
2
Properties=species:S:1:pos:R:3:forces:R:3 energy=-1.90295181715885 pbc="F F F"
Li       0.00000000       0.00000000       0.00000000       0.00000000       0.00000000       0.09064467
Li       0.00000000       0.00000000       5.17696970       0.00000000       0.00000000      -0.09064467
2
Properties=species:S:1:pos:R:3:forces:R:3 energy=-1.897748530033555 pbc="F F F"
Li       0.00000000       0.00000000       0.00000000       0.00000000       0.00000000       0.08629812
Li       0.00000000       0.00000000       5.23575758       0.00000000       0.00000000      -0.08629812
2
Properties=species:S:1:pos:R:3:forces:R:3 energy=-1.8928174789326884 pbc="F F F"
Li       0.00000000       0.00000000       0.00000000       0.00000000       0.00000000       0.08131853
Li       0.00000000       0.00000000       5.29454545       0.00000000       0.00000000      -0.08131853
2
Properties=species:S:1:pos:R:3:forces:R:3 energy=-1.8882012030289022 pbc="F F F"
Li       0.00000000       0.00000000       0.00000000       0.00000000       0.00000000       0.07557538
Li       0.00000000       0.00000000       5.35333333       0.00000000       0.00000000      -0.07557538
2
Properties=species:S:1:pos:R:3:forces:R:3 energy=-1.8839470907258198 pbc="F F F"
Li       0.00000000       0.00000000       0.00000000       0.00000000       0.00000000       0.06906715
Li       0.00000000       0.00000000       5.41212121       0.00000000       0.00000000      -0.06906715
2
Properties=species:S:1:pos:R:3:forces:R:3 energy=-1.8800927465937738 pbc="F F F"
Li       0.00000000       0.00000000       0.00000000       0.00000000       0.00000000       0.06194234
Li       0.00000000       0.00000000       5.47090909       0.00000000       0.00000000      -0.06194234
2
Properties=species:S:1:pos:R:3:forces:R:3 energy=-1.876669500292308 pbc="F F F"
Li       0.00000000       0.00000000       0.00000000       0.00000000       0.00000000       0.05448346
Li       0.00000000       0.00000000       5.52969697       0.00000000       0.00000000      -0.05448346
2
Properties=species:S:1:pos:R:3:forces:R:3 energy=-1.8736867184612895 pbc="F F F"
Li       0.00000000       0.00000000       0.00000000       0.00000000       0.00000000       0.04706051
Li       0.00000000       0.00000000       5.58848485       0.00000000       0.00000000      -0.04706051
2
Properties=species:S:1:pos:R:3:forces:R:3 energy=-1.87112850804249 pbc="F F F"
Li       0.00000000       0.00000000       0.00000000       0.00000000       0.00000000       0.04007788
Li       0.00000000       0.00000000       5.64727273       0.00000000       0.00000000      -0.04007788
2
Properties=species:S:1:pos:R:3:forces:R:3 energy=-1.8689585448397867 pbc="F F F"
Li       0.00000000       0.00000000       0.00000000       0.00000000       0.00000000       0.03389546
Li       0.00000000       0.00000000       5.70606061       0.00000000       0.00000000      -0.03389546
2
Properties=species:S:1:pos:R:3:forces:R:3 energy=-1.8671206659818311 pbc="F F F"
Li       0.00000000       0.00000000       0.00000000       0.00000000       0.00000000       0.02878002
Li       0.00000000       0.00000000       5.76484848       0.00000000       0.00000000      -0.02878002
2
Properties=species:S:1:pos:R:3:forces:R:3 energy=-1.8655512154190952 pbc="F F F"
Li       0.00000000       0.00000000       0.00000000       0.00000000       0.00000000       0.02485458
Li       0.00000000       0.00000000       5.82363636       0.00000000       0.00000000      -0.02485458
2
Properties=species:S:1:pos:R:3:forces:R:3 energy=-1.8641776498423523 pbc="F F F"
Li       0.00000000       0.00000000       0.00000000       0.00000000       0.00000000       0.02206782
Li       0.00000000       0.00000000       5.88242424       0.00000000       0.00000000      -0.02206782
2
Properties=species:S:1:pos:R:3:forces:R:3 energy=-1.8629386624618973 pbc="F F F"
Li       0.00000000       0.00000000       0.00000000       0.00000000       0.00000000       0.02019530
Li       0.00000000       0.00000000       5.94121212       0.00000000       0.00000000      -0.02019530
2
Properties=species:S:1:pos:R:3:forces:R:3 energy=-1.8617921894528378 pbc="F F F"
Li       0.00000000       0.00000000       0.00000000       0.00000000       0.00000000       0.01887134
Li       0.00000000       0.00000000       6.00000000       0.00000000       0.00000000      -0.01887134
