2
Properties=species:S:1:pos:R:3:forces:R:3 energy=79704.53016095019 pbc="F F F"
Mg       0.00000000       0.00000000       0.00000000       0.00000000       0.00000000 -790046.18750000
Mg       0.00000000       0.00000000       0.18000000       0.00000000       0.00000000  790046.18750000
2
Properties=species:S:1:pos:R:3:forces:R:3 energy=40007.6825047002 pbc="F F F"
Mg       0.00000000       0.00000000       0.00000000       0.00000000       0.00000000 -544183.37500000
Mg       0.00000000       0.00000000       0.23878788       0.00000000       0.00000000  544183.37500000
2
Properties=species:S:1:pos:R:3:forces:R:3 energy=15987.725473450197 pbc="F F F"
Mg       0.00000000       0.00000000       0.00000000       0.00000000       0.00000000 -282065.81250000
Mg       0.00000000       0.00000000       0.29757576       0.00000000       0.00000000  282065.81250000
2
Properties=species:S:1:pos:R:3:forces:R:3 energy=5026.744516425282 pbc="F F F"
Mg       0.00000000       0.00000000       0.00000000       0.00000000       0.00000000 -109411.95312500
Mg       0.00000000       0.00000000       0.35636364       0.00000000       0.00000000  109411.95312500
2
Properties=species:S:1:pos:R:3:forces:R:3 energy=1216.9130955395158 pbc="F F F"
Mg       0.00000000       0.00000000       0.00000000       0.00000000       0.00000000  -31626.38476562
Mg       0.00000000       0.00000000       0.41515152       0.00000000       0.00000000   31626.38476562
2
Properties=species:S:1:pos:R:3:forces:R:3 energy=267.4666844257101 pbc="F F F"
Mg       0.00000000       0.00000000       0.00000000       0.00000000       0.00000000   -6511.96679688
Mg       0.00000000       0.00000000       0.47393939       0.00000000       0.00000000    6511.96679688
2
Properties=species:S:1:pos:R:3:forces:R:3 energy=116.82377065803591 pbc="F F F"
Mg       0.00000000       0.00000000       0.00000000       0.00000000       0.00000000    -673.01593018
Mg       0.00000000       0.00000000       0.53272727       0.00000000       0.00000000     673.01593018
2
Properties=species:S:1:pos:R:3:forces:R:3 energy=86.66092893718864 pbc="F F F"
Mg       0.00000000       0.00000000       0.00000000       0.00000000       0.00000000    -274.85794067
Mg       0.00000000       0.00000000       0.59151515       0.00000000       0.00000000     274.85794067
2
Properties=species:S:1:pos:R:3:forces:R:3 energy=69.32856975627233 pbc="F F F"
Mg       0.00000000       0.00000000       0.00000000       0.00000000       0.00000000    -338.38574219
Mg       0.00000000       0.00000000       0.65030303       0.00000000       0.00000000     338.38574219
2
Properties=species:S:1:pos:R:3:forces:R:3 energy=51.99862916945016 pbc="F F F"
Mg       0.00000000       0.00000000       0.00000000       0.00000000       0.00000000    -273.11083984
Mg       0.00000000       0.00000000       0.70909091       0.00000000       0.00000000     273.11083984
2
Properties=species:S:1:pos:R:3:forces:R:3 energy=38.94465914931831 pbc="F F F"
Mg       0.00000000       0.00000000       0.00000000       0.00000000       0.00000000    -157.06341553
Mg       0.00000000       0.00000000       0.76787879       0.00000000       0.00000000     157.06341553
2
Properties=species:S:1:pos:R:3:forces:R:3 energy=32.57505740211556 pbc="F F F"
Mg       0.00000000       0.00000000       0.00000000       0.00000000       0.00000000     -77.03712463
Mg       0.00000000       0.00000000       0.82666667       0.00000000       0.00000000      77.03712463
2
Properties=species:S:1:pos:R:3:forces:R:3 energy=29.239271247900206 pbc="F F F"
Mg       0.00000000       0.00000000       0.00000000       0.00000000       0.00000000     -33.14689636
Mg       0.00000000       0.00000000       0.88545455       0.00000000       0.00000000      33.14689636
2
Properties=species:S:1:pos:R:3:forces:R:3 energy=28.133276994681616 pbc="F F F"
Mg       0.00000000       0.00000000       0.00000000       0.00000000       0.00000000      -8.52917099
Mg       0.00000000       0.00000000       0.94424242       0.00000000       0.00000000       8.52917099
2
Properties=species:S:1:pos:R:3:forces:R:3 energy=27.83189048761653 pbc="F F F"
Mg       0.00000000       0.00000000       0.00000000       0.00000000       0.00000000      -1.54902685
Mg       0.00000000       0.00000000       1.00303030       0.00000000       0.00000000       1.54902685
2
Properties=species:S:1:pos:R:3:forces:R:3 energy=27.932092870323594 pbc="F F F"
Mg       0.00000000       0.00000000       0.00000000       0.00000000       0.00000000       1.09242153
Mg       0.00000000       0.00000000       1.06181818       0.00000000       0.00000000      -1.09242153
2
Properties=species:S:1:pos:R:3:forces:R:3 energy=27.686470615254855 pbc="F F F"
Mg       0.00000000       0.00000000       0.00000000       0.00000000       0.00000000     -13.28119183
Mg       0.00000000       0.00000000       1.12060606       0.00000000       0.00000000      13.28119183
2
Properties=species:S:1:pos:R:3:forces:R:3 energy=26.42029929560836 pbc="F F F"
Mg       0.00000000       0.00000000       0.00000000       0.00000000       0.00000000     -30.62045479
Mg       0.00000000       0.00000000       1.17939394       0.00000000       0.00000000      30.62045479
2
Properties=species:S:1:pos:R:3:forces:R:3 energy=24.54664022441427 pbc="F F F"
Mg       0.00000000       0.00000000       0.00000000       0.00000000       0.00000000     -33.96749496
Mg       0.00000000       0.00000000       1.23818182       0.00000000       0.00000000      33.96749496
2
Properties=species:S:1:pos:R:3:forces:R:3 energy=22.316205039117598 pbc="F F F"
Mg       0.00000000       0.00000000       0.00000000       0.00000000       0.00000000     -42.21892166
Mg       0.00000000       0.00000000       1.29696970       0.00000000       0.00000000      42.21892166
2
Properties=species:S:1:pos:R:3:forces:R:3 energy=19.827119438236508 pbc="F F F"
Mg       0.00000000       0.00000000       0.00000000       0.00000000       0.00000000     -43.29029083
Mg       0.00000000       0.00000000       1.35575758       0.00000000       0.00000000      43.29029083
2
Properties=species:S:1:pos:R:3:forces:R:3 energy=17.11297209729188 pbc="F F F"
Mg       0.00000000       0.00000000       0.00000000       0.00000000       0.00000000     -48.24231720
Mg       0.00000000       0.00000000       1.41454545       0.00000000       0.00000000      48.24231720
2
Properties=species:S:1:pos:R:3:forces:R:3 energy=14.281925265671108 pbc="F F F"
Mg       0.00000000       0.00000000       0.00000000       0.00000000       0.00000000     -47.67976379
Mg       0.00000000       0.00000000       1.47333333       0.00000000       0.00000000      47.67976379
2
Properties=species:S:1:pos:R:3:forces:R:3 energy=11.554840733106793 pbc="F F F"
Mg       0.00000000       0.00000000       0.00000000       0.00000000       0.00000000     -44.22938538
Mg       0.00000000       0.00000000       1.53212121       0.00000000       0.00000000      44.22938538
2
Properties=species:S:1:pos:R:3:forces:R:3 energy=9.15501794424072 pbc="F F F"
Mg       0.00000000       0.00000000       0.00000000       0.00000000       0.00000000     -37.40460587
Mg       0.00000000       0.00000000       1.59090909       0.00000000       0.00000000      37.40460587
2
Properties=species:S:1:pos:R:3:forces:R:3 energy=7.1508020116438145 pbc="F F F"
Mg       0.00000000       0.00000000       0.00000000       0.00000000       0.00000000     -30.60037804
Mg       0.00000000       0.00000000       1.64969697       0.00000000       0.00000000      30.60037804
2
Properties=species:S:1:pos:R:3:forces:R:3 energy=5.529661100269773 pbc="F F F"
Mg       0.00000000       0.00000000       0.00000000       0.00000000       0.00000000     -24.78060150
Mg       0.00000000       0.00000000       1.70848485       0.00000000       0.00000000      24.78060150
2
Properties=species:S:1:pos:R:3:forces:R:3 energy=4.250805864029165 pbc="F F F"
Mg       0.00000000       0.00000000       0.00000000       0.00000000       0.00000000     -18.81264114
Mg       0.00000000       0.00000000       1.76727273       0.00000000       0.00000000      18.81264114
2
Properties=species:S:1:pos:R:3:forces:R:3 energy=3.2871020538330007 pbc="F F F"
Mg       0.00000000       0.00000000       0.00000000       0.00000000       0.00000000     -14.07934856
Mg       0.00000000       0.00000000       1.82606061       0.00000000       0.00000000      14.07934856
2
Properties=species:S:1:pos:R:3:forces:R:3 energy=2.5675836967062526 pbc="F F F"
Mg       0.00000000       0.00000000       0.00000000       0.00000000       0.00000000     -10.60450459
Mg       0.00000000       0.00000000       1.88484848       0.00000000       0.00000000      10.60450459
2
Properties=species:S:1:pos:R:3:forces:R:3 energy=2.0210469286171038 pbc="F F F"
Mg       0.00000000       0.00000000       0.00000000       0.00000000       0.00000000      -8.13425922
Mg       0.00000000       0.00000000       1.94363636       0.00000000       0.00000000       8.13425922
2
Properties=species:S:1:pos:R:3:forces:R:3 energy=1.5945041516999439 pbc="F F F"
Mg       0.00000000       0.00000000       0.00000000       0.00000000       0.00000000      -6.49416351
Mg       0.00000000       0.00000000       2.00242424       0.00000000       0.00000000       6.49416351
2
Properties=species:S:1:pos:R:3:forces:R:3 energy=1.248371202776026 pbc="F F F"
Mg       0.00000000       0.00000000       0.00000000       0.00000000       0.00000000      -5.33853292
Mg       0.00000000       0.00000000       2.06121212       0.00000000       0.00000000       5.33853292
2
Properties=species:S:1:pos:R:3:forces:R:3 energy=0.9616806013328153 pbc="F F F"
Mg       0.00000000       0.00000000       0.00000000       0.00000000       0.00000000      -4.43908024
Mg       0.00000000       0.00000000       2.12000000       0.00000000       0.00000000       4.43908024
2
Properties=species:S:1:pos:R:3:forces:R:3 energy=0.7216531525523057 pbc="F F F"
Mg       0.00000000       0.00000000       0.00000000       0.00000000       0.00000000      -3.78732157
Mg       0.00000000       0.00000000       2.17878788       0.00000000       0.00000000       3.78732157
2
Properties=species:S:1:pos:R:3:forces:R:3 energy=0.5134095567301675 pbc="F F F"
Mg       0.00000000       0.00000000       0.00000000       0.00000000       0.00000000      -3.28813004
Mg       0.00000000       0.00000000       2.23757576       0.00000000       0.00000000       3.28813004
2
Properties=species:S:1:pos:R:3:forces:R:3 energy=0.33491964865919777 pbc="F F F"
Mg       0.00000000       0.00000000       0.00000000       0.00000000       0.00000000      -2.79405236
Mg       0.00000000       0.00000000       2.29636364       0.00000000       0.00000000       2.79405236
2
Properties=species:S:1:pos:R:3:forces:R:3 energy=0.18425593684050606 pbc="F F F"
Mg       0.00000000       0.00000000       0.00000000       0.00000000       0.00000000      -2.33696365
Mg       0.00000000       0.00000000       2.35515152       0.00000000       0.00000000       2.33696365
2
Properties=species:S:1:pos:R:3:forces:R:3 energy=0.05891865715710705 pbc="F F F"
Mg       0.00000000       0.00000000       0.00000000       0.00000000       0.00000000      -1.93857980
Mg       0.00000000       0.00000000       2.41393939       0.00000000       0.00000000       1.93857980
2
Properties=species:S:1:pos:R:3:forces:R:3 energy=-0.04500318009233212 pbc="F F F"
Mg       0.00000000       0.00000000       0.00000000       0.00000000       0.00000000      -1.60892487
Mg       0.00000000       0.00000000       2.47272727       0.00000000       0.00000000       1.60892487
2
Properties=species:S:1:pos:R:3:forces:R:3 energy=-0.1310883008168691 pbc="F F F"
Mg       0.00000000       0.00000000       0.00000000       0.00000000       0.00000000      -1.32082427
Mg       0.00000000       0.00000000       2.53151515       0.00000000       0.00000000       1.32082427
2
Properties=species:S:1:pos:R:3:forces:R:3 energy=-0.2005607977112022 pbc="F F F"
Mg       0.00000000       0.00000000       0.00000000       0.00000000       0.00000000      -1.04908156
Mg       0.00000000       0.00000000       2.59030303       0.00000000       0.00000000       1.04908156
2
Properties=species:S:1:pos:R:3:forces:R:3 energy=-0.2554347065872683 pbc="F F F"
Mg       0.00000000       0.00000000       0.00000000       0.00000000       0.00000000      -0.82597804
Mg       0.00000000       0.00000000       2.64909091       0.00000000       0.00000000       0.82597804
2
Properties=species:S:1:pos:R:3:forces:R:3 energy=-0.29837610373702167 pbc="F F F"
Mg       0.00000000       0.00000000       0.00000000       0.00000000       0.00000000      -0.63848430
Mg       0.00000000       0.00000000       2.70787879       0.00000000       0.00000000       0.63848430
2
Properties=species:S:1:pos:R:3:forces:R:3 energy=-0.33081504786169164 pbc="F F F"
Mg       0.00000000       0.00000000       0.00000000       0.00000000       0.00000000      -0.46816903
Mg       0.00000000       0.00000000       2.76666667       0.00000000       0.00000000       0.46816903
2
Properties=species:S:1:pos:R:3:forces:R:3 energy=-0.3539417562517121 pbc="F F F"
Mg       0.00000000       0.00000000       0.00000000       0.00000000       0.00000000      -0.32414585
Mg       0.00000000       0.00000000       2.82545455       0.00000000       0.00000000       0.32414585
2
Properties=species:S:1:pos:R:3:forces:R:3 energy=-0.3696036445313904 pbc="F F F"
Mg       0.00000000       0.00000000       0.00000000       0.00000000       0.00000000      -0.21400240
Mg       0.00000000       0.00000000       2.88424242       0.00000000       0.00000000       0.21400240
2
Properties=species:S:1:pos:R:3:forces:R:3 energy=-0.37961763948249566 pbc="F F F"
Mg       0.00000000       0.00000000       0.00000000       0.00000000       0.00000000      -0.13005997
Mg       0.00000000       0.00000000       2.94303030       0.00000000       0.00000000       0.13005997
2
Properties=species:S:1:pos:R:3:forces:R:3 energy=-0.3851744854743866 pbc="F F F"
Mg       0.00000000       0.00000000       0.00000000       0.00000000       0.00000000      -0.06059350
Mg       0.00000000       0.00000000       3.00181818       0.00000000       0.00000000       0.06059350
2
Properties=species:S:1:pos:R:3:forces:R:3 energy=-0.3868928849714435 pbc="F F F"
Mg       0.00000000       0.00000000       0.00000000       0.00000000       0.00000000       0.00093094
Mg       0.00000000       0.00000000       3.06060606       0.00000000       0.00000000      -0.00093094
2
Properties=species:S:1:pos:R:3:forces:R:3 energy=-0.3852460608929457 pbc="F F F"
Mg       0.00000000       0.00000000       0.00000000       0.00000000       0.00000000       0.05313690
Mg       0.00000000       0.00000000       3.11939394       0.00000000       0.00000000      -0.05313690
2
Properties=species:S:1:pos:R:3:forces:R:3 energy=-0.38092057027164433 pbc="F F F"
Mg       0.00000000       0.00000000       0.00000000       0.00000000       0.00000000       0.09142146
Mg       0.00000000       0.00000000       3.17818182       0.00000000       0.00000000      -0.09142146
2
Properties=species:S:1:pos:R:3:forces:R:3 energy=-0.3747910487047754 pbc="F F F"
Mg       0.00000000       0.00000000       0.00000000       0.00000000       0.00000000       0.11499175
Mg       0.00000000       0.00000000       3.23696970       0.00000000       0.00000000      -0.11499175
2
Properties=species:S:1:pos:R:3:forces:R:3 energy=-0.36756112052212786 pbc="F F F"
Mg       0.00000000       0.00000000       0.00000000       0.00000000       0.00000000       0.13047753
Mg       0.00000000       0.00000000       3.29575758       0.00000000       0.00000000      -0.13047753
2
Properties=species:S:1:pos:R:3:forces:R:3 energy=-0.3594092647067485 pbc="F F F"
Mg       0.00000000       0.00000000       0.00000000       0.00000000       0.00000000       0.14776680
Mg       0.00000000       0.00000000       3.35454545       0.00000000       0.00000000      -0.14776680
2
Properties=species:S:1:pos:R:3:forces:R:3 energy=-0.35007270510271427 pbc="F F F"
Mg       0.00000000       0.00000000       0.00000000       0.00000000       0.00000000       0.17058358
Mg       0.00000000       0.00000000       3.41333333       0.00000000       0.00000000      -0.17058358
2
Properties=species:S:1:pos:R:3:forces:R:3 energy=-0.33932519836789615 pbc="F F F"
Mg       0.00000000       0.00000000       0.00000000       0.00000000       0.00000000       0.19483022
Mg       0.00000000       0.00000000       3.47212121       0.00000000       0.00000000      -0.19483022
2
Properties=species:S:1:pos:R:3:forces:R:3 energy=-0.3272339058859186 pbc="F F F"
Mg       0.00000000       0.00000000       0.00000000       0.00000000       0.00000000       0.21568598
Mg       0.00000000       0.00000000       3.53090909       0.00000000       0.00000000      -0.21568598
2
Properties=species:S:1:pos:R:3:forces:R:3 energy=-0.31406549433017406 pbc="F F F"
Mg       0.00000000       0.00000000       0.00000000       0.00000000       0.00000000       0.23153251
Mg       0.00000000       0.00000000       3.58969697       0.00000000       0.00000000      -0.23153251
2
Properties=species:S:1:pos:R:3:forces:R:3 energy=-0.3001021464392595 pbc="F F F"
Mg       0.00000000       0.00000000       0.00000000       0.00000000       0.00000000       0.24279414
Mg       0.00000000       0.00000000       3.64848485       0.00000000       0.00000000      -0.24279414
2
Properties=species:S:1:pos:R:3:forces:R:3 energy=-0.285591459693997 pbc="F F F"
Mg       0.00000000       0.00000000       0.00000000       0.00000000       0.00000000       0.25032738
Mg       0.00000000       0.00000000       3.70727273       0.00000000       0.00000000      -0.25032738
2
Properties=species:S:1:pos:R:3:forces:R:3 energy=-0.27072834269340823 pbc="F F F"
Mg       0.00000000       0.00000000       0.00000000       0.00000000       0.00000000       0.25486287
Mg       0.00000000       0.00000000       3.76606061       0.00000000       0.00000000      -0.25486287
2
Properties=species:S:1:pos:R:3:forces:R:3 energy=-0.2556742200910734 pbc="F F F"
Mg       0.00000000       0.00000000       0.00000000       0.00000000       0.00000000       0.25692025
Mg       0.00000000       0.00000000       3.82484848       0.00000000       0.00000000      -0.25692025
2
Properties=species:S:1:pos:R:3:forces:R:3 energy=-0.24056361405075607 pbc="F F F"
Mg       0.00000000       0.00000000       0.00000000       0.00000000       0.00000000       0.25680068
Mg       0.00000000       0.00000000       3.88363636       0.00000000       0.00000000      -0.25680068
2
Properties=species:S:1:pos:R:3:forces:R:3 energy=-0.22552070024404774 pbc="F F F"
Mg       0.00000000       0.00000000       0.00000000       0.00000000       0.00000000       0.25463897
Mg       0.00000000       0.00000000       3.94242424       0.00000000       0.00000000      -0.25463897
2
Properties=species:S:1:pos:R:3:forces:R:3 energy=-0.21066258907471327 pbc="F F F"
Mg       0.00000000       0.00000000       0.00000000       0.00000000       0.00000000       0.25051951
Mg       0.00000000       0.00000000       4.00121212       0.00000000       0.00000000      -0.25051951
2
Properties=species:S:1:pos:R:3:forces:R:3 energy=-0.19610031506363787 pbc="F F F"
Mg       0.00000000       0.00000000       0.00000000       0.00000000       0.00000000       0.24461575
Mg       0.00000000       0.00000000       4.06000000       0.00000000       0.00000000      -0.24461575
2
Properties=species:S:1:pos:R:3:forces:R:3 energy=-0.18193032782417504 pbc="F F F"
Mg       0.00000000       0.00000000       0.00000000       0.00000000       0.00000000       0.23725437
Mg       0.00000000       0.00000000       4.11878788       0.00000000       0.00000000      -0.23725437
2
Properties=species:S:1:pos:R:3:forces:R:3 energy=-0.16822595468694537 pbc="F F F"
Mg       0.00000000       0.00000000       0.00000000       0.00000000       0.00000000       0.22885498
Mg       0.00000000       0.00000000       4.17757576       0.00000000       0.00000000      -0.22885498
2
Properties=species:S:1:pos:R:3:forces:R:3 energy=-0.15503448566406086 pbc="F F F"
Mg       0.00000000       0.00000000       0.00000000       0.00000000       0.00000000       0.21981701
Mg       0.00000000       0.00000000       4.23636364       0.00000000       0.00000000      -0.21981701
2
Properties=species:S:1:pos:R:3:forces:R:3 energy=-0.14238690659726225 pbc="F F F"
Mg       0.00000000       0.00000000       0.00000000       0.00000000       0.00000000       0.21043140
Mg       0.00000000       0.00000000       4.29515152       0.00000000       0.00000000      -0.21043140
2
Properties=species:S:1:pos:R:3:forces:R:3 energy=-0.13029688679896775 pbc="F F F"
Mg       0.00000000       0.00000000       0.00000000       0.00000000       0.00000000       0.20087358
Mg       0.00000000       0.00000000       4.35393939       0.00000000       0.00000000      -0.20087358
2
Properties=species:S:1:pos:R:3:forces:R:3 energy=-0.11877064057713246 pbc="F F F"
Mg       0.00000000       0.00000000       0.00000000       0.00000000       0.00000000       0.19122776
Mg       0.00000000       0.00000000       4.41272727       0.00000000       0.00000000      -0.19122776
2
Properties=species:S:1:pos:R:3:forces:R:3 energy=-0.10781327183812361 pbc="F F F"
Mg       0.00000000       0.00000000       0.00000000       0.00000000       0.00000000       0.18152443
Mg       0.00000000       0.00000000       4.47151515       0.00000000       0.00000000      -0.18152443
2
Properties=species:S:1:pos:R:3:forces:R:3 energy=-0.09742853333223743 pbc="F F F"
Mg       0.00000000       0.00000000       0.00000000       0.00000000       0.00000000       0.17176394
Mg       0.00000000       0.00000000       4.53030303       0.00000000       0.00000000      -0.17176394
2
Properties=species:S:1:pos:R:3:forces:R:3 energy=-0.0876193098265016 pbc="F F F"
Mg       0.00000000       0.00000000       0.00000000       0.00000000       0.00000000       0.16193989
Mg       0.00000000       0.00000000       4.58909091       0.00000000       0.00000000      -0.16193989
2
Properties=species:S:1:pos:R:3:forces:R:3 energy=-0.07838996110877833 pbc="F F F"
Mg       0.00000000       0.00000000       0.00000000       0.00000000       0.00000000       0.15207076
Mg       0.00000000       0.00000000       4.64787879       0.00000000       0.00000000      -0.15207076
2
Properties=species:S:1:pos:R:3:forces:R:3 energy=-0.06974001539875474 pbc="F F F"
Mg       0.00000000       0.00000000       0.00000000       0.00000000       0.00000000       0.14223392
Mg       0.00000000       0.00000000       4.70666667       0.00000000       0.00000000      -0.14223392
2
Properties=species:S:1:pos:R:3:forces:R:3 energy=-0.06166319349887138 pbc="F F F"
Mg       0.00000000       0.00000000       0.00000000       0.00000000       0.00000000       0.13258407
Mg       0.00000000       0.00000000       4.76545455       0.00000000       0.00000000      -0.13258407
2
Properties=species:S:1:pos:R:3:forces:R:3 energy=-0.05414215091429343 pbc="F F F"
Mg       0.00000000       0.00000000       0.00000000       0.00000000       0.00000000       0.12335085
Mg       0.00000000       0.00000000       4.82424242       0.00000000       0.00000000      -0.12335085
2
Properties=species:S:1:pos:R:3:forces:R:3 energy=-0.04714664969983156 pbc="F F F"
Mg       0.00000000       0.00000000       0.00000000       0.00000000       0.00000000       0.11479542
Mg       0.00000000       0.00000000       4.88303030       0.00000000       0.00000000      -0.11479542
2
Properties=species:S:1:pos:R:3:forces:R:3 energy=-0.04062772237244615 pbc="F F F"
Mg       0.00000000       0.00000000       0.00000000       0.00000000       0.00000000       0.10714200
Mg       0.00000000       0.00000000       4.94181818       0.00000000       0.00000000      -0.10714200
2
Properties=species:S:1:pos:R:3:forces:R:3 energy=-0.034528355565878854 pbc="F F F"
Mg       0.00000000       0.00000000       0.00000000       0.00000000       0.00000000       0.10051350
Mg       0.00000000       0.00000000       5.00060606       0.00000000       0.00000000      -0.10051350
2
Properties=species:S:1:pos:R:3:forces:R:3 energy=-0.028789739598863537 pbc="F F F"
Mg       0.00000000       0.00000000       0.00000000       0.00000000       0.00000000       0.09486715
Mg       0.00000000       0.00000000       5.05939394       0.00000000       0.00000000      -0.09486715
2
Properties=species:S:1:pos:R:3:forces:R:3 energy=-0.023359861047440412 pbc="F F F"
Mg       0.00000000       0.00000000       0.00000000       0.00000000       0.00000000       0.08998836
Mg       0.00000000       0.00000000       5.11818182       0.00000000       0.00000000      -0.08998836
2
Properties=species:S:1:pos:R:3:forces:R:3 energy=-0.018202209358867457 pbc="F F F"
Mg       0.00000000       0.00000000       0.00000000       0.00000000       0.00000000       0.08551455
Mg       0.00000000       0.00000000       5.17696970       0.00000000       0.00000000      -0.08551455
2
Properties=species:S:1:pos:R:3:forces:R:3 energy=-0.013305929816117185 pbc="F F F"
Mg       0.00000000       0.00000000       0.00000000       0.00000000       0.00000000       0.08101179
Mg       0.00000000       0.00000000       5.23575758       0.00000000       0.00000000      -0.08101179
2
Properties=species:S:1:pos:R:3:forces:R:3 energy=-0.008685796611388397 pbc="F F F"
Mg       0.00000000       0.00000000       0.00000000       0.00000000       0.00000000       0.07606432
Mg       0.00000000       0.00000000       5.29454545       0.00000000       0.00000000      -0.07606432
2
Properties=species:S:1:pos:R:3:forces:R:3 energy=-0.004376685621269839 pbc="F F F"
Mg       0.00000000       0.00000000       0.00000000       0.00000000       0.00000000       0.07036380
Mg       0.00000000       0.00000000       5.35333333       0.00000000       0.00000000      -0.07036380
2
Properties=species:S:1:pos:R:3:forces:R:3 energy=-0.0004298024750735707 pbc="F F F"
Mg       0.00000000       0.00000000       0.00000000       0.00000000       0.00000000       0.06378139
Mg       0.00000000       0.00000000       5.41212121       0.00000000       0.00000000      -0.06378139
2
Properties=species:S:1:pos:R:3:forces:R:3 energy=0.003106379844115638 pbc="F F F"
Mg       0.00000000       0.00000000       0.00000000       0.00000000       0.00000000       0.05639460
Mg       0.00000000       0.00000000       5.47090909       0.00000000       0.00000000      -0.05639460
2
Properties=species:S:1:pos:R:3:forces:R:3 energy=0.0061902525588456644 pbc="F F F"
Mg       0.00000000       0.00000000       0.00000000       0.00000000       0.00000000       0.04847896
Mg       0.00000000       0.00000000       5.52969697       0.00000000       0.00000000      -0.04847896
2
Properties=species:S:1:pos:R:3:forces:R:3 energy=0.008804221395881606 pbc="F F F"
Mg       0.00000000       0.00000000       0.00000000       0.00000000       0.00000000       0.04045722
Mg       0.00000000       0.00000000       5.58848485       0.00000000       0.00000000      -0.04045722
2
Properties=species:S:1:pos:R:3:forces:R:3 energy=0.010954647981496035 pbc="F F F"
Mg       0.00000000       0.00000000       0.00000000       0.00000000       0.00000000       0.03282897
Mg       0.00000000       0.00000000       5.64727273       0.00000000       0.00000000      -0.03282897
2
Properties=species:S:1:pos:R:3:forces:R:3 energy=0.01267994340186988 pbc="F F F"
Mg       0.00000000       0.00000000       0.00000000       0.00000000       0.00000000       0.02607107
Mg       0.00000000       0.00000000       5.70606061       0.00000000       0.00000000      -0.02607107
2
Properties=species:S:1:pos:R:3:forces:R:3 energy=0.014045220040132363 pbc="F F F"
Mg       0.00000000       0.00000000       0.00000000       0.00000000       0.00000000       0.02055823
Mg       0.00000000       0.00000000       5.76484848       0.00000000       0.00000000      -0.02055823
2
Properties=species:S:1:pos:R:3:forces:R:3 energy=0.015126560701873529 pbc="F F F"
Mg       0.00000000       0.00000000       0.00000000       0.00000000       0.00000000       0.01649291
Mg       0.00000000       0.00000000       5.82363636       0.00000000       0.00000000      -0.01649291
2
Properties=species:S:1:pos:R:3:forces:R:3 energy=0.016010063356916758 pbc="F F F"
Mg       0.00000000       0.00000000       0.00000000       0.00000000       0.00000000       0.01384299
Mg       0.00000000       0.00000000       5.88242424       0.00000000       0.00000000      -0.01384299
2
Properties=species:S:1:pos:R:3:forces:R:3 energy=0.016776507906435797 pbc="F F F"
Mg       0.00000000       0.00000000       0.00000000       0.00000000       0.00000000       0.01233695
Mg       0.00000000       0.00000000       5.94121212       0.00000000       0.00000000      -0.01233695
2
Properties=species:S:1:pos:R:3:forces:R:3 energy=0.017476102820502874 pbc="F F F"
Mg       0.00000000       0.00000000       0.00000000       0.00000000       0.00000000       0.01149992
Mg       0.00000000       0.00000000       6.00000000       0.00000000       0.00000000      -0.01149992
