2
Properties=species:S:1:pos:R:3:forces:R:3 energy=-45.778859884048835 pbc="F F F"
N        0.00000000       0.00000000       0.00000000       0.00000000       0.00000000    3192.32250977
N        0.00000000       0.00000000       0.18000000       0.00000000       0.00000000   -3192.32250977
2
Properties=species:S:1:pos:R:3:forces:R:3 energy=88.81499311436126 pbc="F F F"
N        0.00000000       0.00000000       0.00000000       0.00000000       0.00000000     566.09051514
N        0.00000000       0.00000000       0.23878788       0.00000000       0.00000000    -566.09051514
2
Properties=species:S:1:pos:R:3:forces:R:3 energy=105.72872755198031 pbc="F F F"
N        0.00000000       0.00000000       0.00000000       0.00000000       0.00000000    -262.65551758
N        0.00000000       0.00000000       0.29757576       0.00000000       0.00000000     262.65551758
2
Properties=species:S:1:pos:R:3:forces:R:3 energy=95.66410658822019 pbc="F F F"
N        0.00000000       0.00000000       0.00000000       0.00000000       0.00000000     578.70788574
N        0.00000000       0.00000000       0.35636364       0.00000000       0.00000000    -578.70788574
2
Properties=species:S:1:pos:R:3:forces:R:3 energy=98.43018936852313 pbc="F F F"
N        0.00000000       0.00000000       0.00000000       0.00000000       0.00000000     -91.42314148
N        0.00000000       0.00000000       0.41515152       0.00000000       0.00000000      91.42314148
2
Properties=species:S:1:pos:R:3:forces:R:3 energy=89.55895832109978 pbc="F F F"
N        0.00000000       0.00000000       0.00000000       0.00000000       0.00000000    -351.25411987
N        0.00000000       0.00000000       0.47393939       0.00000000       0.00000000     351.25411987
2
Properties=species:S:1:pos:R:3:forces:R:3 energy=65.74317774243193 pbc="F F F"
N        0.00000000       0.00000000       0.00000000       0.00000000       0.00000000    -424.12167358
N        0.00000000       0.00000000       0.53272727       0.00000000       0.00000000     424.12167358
2
Properties=species:S:1:pos:R:3:forces:R:3 energy=47.59195562034202 pbc="F F F"
N        0.00000000       0.00000000       0.00000000       0.00000000       0.00000000    -196.96821594
N        0.00000000       0.00000000       0.59151515       0.00000000       0.00000000     196.96821594
2
Properties=species:S:1:pos:R:3:forces:R:3 energy=33.67825950630169 pbc="F F F"
N        0.00000000       0.00000000       0.00000000       0.00000000       0.00000000    -303.72583008
N        0.00000000       0.00000000       0.65030303       0.00000000       0.00000000     303.72583008
2
Properties=species:S:1:pos:R:3:forces:R:3 energy=14.96355240812142 pbc="F F F"
N        0.00000000       0.00000000       0.00000000       0.00000000       0.00000000    -232.14628601
N        0.00000000       0.00000000       0.70909091       0.00000000       0.00000000     232.14628601
2
Properties=species:S:1:pos:R:3:forces:R:3 energy=4.027731293070818 pbc="F F F"
N        0.00000000       0.00000000       0.00000000       0.00000000       0.00000000    -155.61128235
N        0.00000000       0.00000000       0.76787879       0.00000000       0.00000000     155.61128235
2
Properties=species:S:1:pos:R:3:forces:R:3 energy=-3.878688799282367 pbc="F F F"
N        0.00000000       0.00000000       0.00000000       0.00000000       0.00000000    -112.22547913
N        0.00000000       0.00000000       0.82666667       0.00000000       0.00000000     112.22547913
2
Properties=species:S:1:pos:R:3:forces:R:3 energy=-9.400776920768545 pbc="F F F"
N        0.00000000       0.00000000       0.00000000       0.00000000       0.00000000     -77.65917206
N        0.00000000       0.00000000       0.88545455       0.00000000       0.00000000      77.65917206
2
Properties=species:S:1:pos:R:3:forces:R:3 energy=-13.018073812330567 pbc="F F F"
N        0.00000000       0.00000000       0.00000000       0.00000000       0.00000000     -46.88634491
N        0.00000000       0.00000000       0.94424242       0.00000000       0.00000000      46.88634491
2
Properties=species:S:1:pos:R:3:forces:R:3 energy=-15.080224026420229 pbc="F F F"
N        0.00000000       0.00000000       0.00000000       0.00000000       0.00000000     -24.31606865
N        0.00000000       0.00000000       1.00303030       0.00000000       0.00000000      24.31606865
2
Properties=species:S:1:pos:R:3:forces:R:3 energy=-16.024312588788966 pbc="F F F"
N        0.00000000       0.00000000       0.00000000       0.00000000       0.00000000      -8.96729469
N        0.00000000       0.00000000       1.06181818       0.00000000       0.00000000       8.96729469
2
Properties=species:S:1:pos:R:3:forces:R:3 energy=-16.232422288113174 pbc="F F F"
N        0.00000000       0.00000000       0.00000000       0.00000000       0.00000000       1.11567509
N        0.00000000       0.00000000       1.12060606       0.00000000       0.00000000      -1.11567509
2
Properties=species:S:1:pos:R:3:forces:R:3 energy=-15.993589696996317 pbc="F F F"
N        0.00000000       0.00000000       0.00000000       0.00000000       0.00000000       6.57187605
N        0.00000000       0.00000000       1.17939394       0.00000000       0.00000000      -6.57187605
2
Properties=species:S:1:pos:R:3:forces:R:3 energy=-15.516654997923151 pbc="F F F"
N        0.00000000       0.00000000       0.00000000       0.00000000       0.00000000       9.86393261
N        0.00000000       0.00000000       1.23818182       0.00000000       0.00000000      -9.86393261
2
Properties=species:S:1:pos:R:3:forces:R:3 energy=-14.87201824440515 pbc="F F F"
N        0.00000000       0.00000000       0.00000000       0.00000000       0.00000000      11.88912582
N        0.00000000       0.00000000       1.29696970       0.00000000       0.00000000     -11.88912582
2
Properties=species:S:1:pos:R:3:forces:R:3 energy=-14.132211959578239 pbc="F F F"
N        0.00000000       0.00000000       0.00000000       0.00000000       0.00000000      13.09563541
N        0.00000000       0.00000000       1.35575758       0.00000000       0.00000000     -13.09563541
2
Properties=species:S:1:pos:R:3:forces:R:3 energy=-13.34908361083163 pbc="F F F"
N        0.00000000       0.00000000       0.00000000       0.00000000       0.00000000      13.38834190
N        0.00000000       0.00000000       1.41454545       0.00000000       0.00000000     -13.38834190
2
Properties=species:S:1:pos:R:3:forces:R:3 energy=-12.562465607154166 pbc="F F F"
N        0.00000000       0.00000000       0.00000000       0.00000000       0.00000000      13.21370316
N        0.00000000       0.00000000       1.47333333       0.00000000       0.00000000     -13.21370316
2
Properties=species:S:1:pos:R:3:forces:R:3 energy=-11.8082598315253 pbc="F F F"
N        0.00000000       0.00000000       0.00000000       0.00000000       0.00000000      12.50603008
N        0.00000000       0.00000000       1.53212121       0.00000000       0.00000000     -12.50603008
2
Properties=species:S:1:pos:R:3:forces:R:3 energy=-11.08981164720635 pbc="F F F"
N        0.00000000       0.00000000       0.00000000       0.00000000       0.00000000      12.00055408
N        0.00000000       0.00000000       1.59090909       0.00000000       0.00000000     -12.00055408
2
Properties=species:S:1:pos:R:3:forces:R:3 energy=-10.388972752485904 pbc="F F F"
N        0.00000000       0.00000000       0.00000000       0.00000000       0.00000000      11.68579674
N        0.00000000       0.00000000       1.64969697       0.00000000       0.00000000     -11.68579674
2
Properties=species:S:1:pos:R:3:forces:R:3 energy=-9.732208515626784 pbc="F F F"
N        0.00000000       0.00000000       0.00000000       0.00000000       0.00000000      10.72128296
N        0.00000000       0.00000000       1.70848485       0.00000000       0.00000000     -10.72128296
2
Properties=species:S:1:pos:R:3:forces:R:3 energy=-9.12394949980705 pbc="F F F"
N        0.00000000       0.00000000       0.00000000       0.00000000       0.00000000       9.99156094
N        0.00000000       0.00000000       1.76727273       0.00000000       0.00000000      -9.99156094
2
Properties=species:S:1:pos:R:3:forces:R:3 energy=-8.563764643981015 pbc="F F F"
N        0.00000000       0.00000000       0.00000000       0.00000000       0.00000000       8.95799923
N        0.00000000       0.00000000       1.82606061       0.00000000       0.00000000      -8.95799923
2
Properties=species:S:1:pos:R:3:forces:R:3 energy=-8.060008838678264 pbc="F F F"
N        0.00000000       0.00000000       0.00000000       0.00000000       0.00000000       8.19215488
N        0.00000000       0.00000000       1.88484848       0.00000000       0.00000000      -8.19215488
2
Properties=species:S:1:pos:R:3:forces:R:3 energy=-7.608166631435528 pbc="F F F"
N        0.00000000       0.00000000       0.00000000       0.00000000       0.00000000       7.12247324
N        0.00000000       0.00000000       1.94363636       0.00000000       0.00000000      -7.12247324
2
Properties=species:S:1:pos:R:3:forces:R:3 energy=-7.228163305977141 pbc="F F F"
N        0.00000000       0.00000000       0.00000000       0.00000000       0.00000000       5.77806187
N        0.00000000       0.00000000       2.00242424       0.00000000       0.00000000      -5.77806187
2
Properties=species:S:1:pos:R:3:forces:R:3 energy=-6.924348157757262 pbc="F F F"
N        0.00000000       0.00000000       0.00000000       0.00000000       0.00000000       4.63836098
N        0.00000000       0.00000000       2.06121212       0.00000000       0.00000000      -4.63836098
2
Properties=species:S:1:pos:R:3:forces:R:3 energy=-6.67974494089594 pbc="F F F"
N        0.00000000       0.00000000       0.00000000       0.00000000       0.00000000       3.68067431
N        0.00000000       0.00000000       2.12000000       0.00000000       0.00000000      -3.68067431
2
Properties=species:S:1:pos:R:3:forces:R:3 energy=-6.488539941003874 pbc="F F F"
N        0.00000000       0.00000000       0.00000000       0.00000000       0.00000000       2.85678959
N        0.00000000       0.00000000       2.17878788       0.00000000       0.00000000      -2.85678959
2
Properties=species:S:1:pos:R:3:forces:R:3 energy=-6.342419037248087 pbc="F F F"
N        0.00000000       0.00000000       0.00000000       0.00000000       0.00000000       2.12492800
N        0.00000000       0.00000000       2.23757576       0.00000000       0.00000000      -2.12492800
2
Properties=species:S:1:pos:R:3:forces:R:3 energy=-6.235715345409839 pbc="F F F"
N        0.00000000       0.00000000       0.00000000       0.00000000       0.00000000       1.53076482
N        0.00000000       0.00000000       2.29636364       0.00000000       0.00000000      -1.53076482
2
Properties=species:S:1:pos:R:3:forces:R:3 energy=-6.16031792846484 pbc="F F F"
N        0.00000000       0.00000000       0.00000000       0.00000000       0.00000000       1.05491698
N        0.00000000       0.00000000       2.35515152       0.00000000       0.00000000      -1.05491698
2
Properties=species:S:1:pos:R:3:forces:R:3 energy=-6.108397618415427 pbc="F F F"
N        0.00000000       0.00000000       0.00000000       0.00000000       0.00000000       0.74030834
N        0.00000000       0.00000000       2.41393939       0.00000000       0.00000000      -0.74030834
2
Properties=species:S:1:pos:R:3:forces:R:3 energy=-6.0706464525631665 pbc="F F F"
N        0.00000000       0.00000000       0.00000000       0.00000000       0.00000000       0.55847907
N        0.00000000       0.00000000       2.47272727       0.00000000       0.00000000      -0.55847907
2
Properties=species:S:1:pos:R:3:forces:R:3 energy=-6.041818939439697 pbc="F F F"
N        0.00000000       0.00000000       0.00000000       0.00000000       0.00000000       0.42544755
N        0.00000000       0.00000000       2.53151515       0.00000000       0.00000000      -0.42544755
2
Properties=species:S:1:pos:R:3:forces:R:3 energy=-6.020300262129171 pbc="F F F"
N        0.00000000       0.00000000       0.00000000       0.00000000       0.00000000       0.31016624
N        0.00000000       0.00000000       2.59030303       0.00000000       0.00000000      -0.31016624
2
Properties=species:S:1:pos:R:3:forces:R:3 energy=-6.004911565926868 pbc="F F F"
N        0.00000000       0.00000000       0.00000000       0.00000000       0.00000000       0.21731158
N        0.00000000       0.00000000       2.64909091       0.00000000       0.00000000      -0.21731158
2
Properties=species:S:1:pos:R:3:forces:R:3 energy=-5.994251084220113 pbc="F F F"
N        0.00000000       0.00000000       0.00000000       0.00000000       0.00000000       0.14972608
N        0.00000000       0.00000000       2.70787879       0.00000000       0.00000000      -0.14972608
2
Properties=species:S:1:pos:R:3:forces:R:3 energy=-5.986834375338162 pbc="F F F"
N        0.00000000       0.00000000       0.00000000       0.00000000       0.00000000       0.10587090
N        0.00000000       0.00000000       2.76666667       0.00000000       0.00000000      -0.10587090
2
Properties=species:S:1:pos:R:3:forces:R:3 energy=-5.981517788794732 pbc="F F F"
N        0.00000000       0.00000000       0.00000000       0.00000000       0.00000000       0.07675821
N        0.00000000       0.00000000       2.82545455       0.00000000       0.00000000      -0.07675821
2
Properties=species:S:1:pos:R:3:forces:R:3 energy=-5.977633918719151 pbc="F F F"
N        0.00000000       0.00000000       0.00000000       0.00000000       0.00000000       0.05676850
N        0.00000000       0.00000000       2.88424242       0.00000000       0.00000000      -0.05676850
2
Properties=species:S:1:pos:R:3:forces:R:3 energy=-5.974655921584363 pbc="F F F"
N        0.00000000       0.00000000       0.00000000       0.00000000       0.00000000       0.04644834
N        0.00000000       0.00000000       2.94303030       0.00000000       0.00000000      -0.04644834
2
Properties=species:S:1:pos:R:3:forces:R:3 energy=-5.97194191485906 pbc="F F F"
N        0.00000000       0.00000000       0.00000000       0.00000000       0.00000000       0.04763711
N        0.00000000       0.00000000       3.00181818       0.00000000       0.00000000      -0.04763711
2
Properties=species:S:1:pos:R:3:forces:R:3 energy=-5.968908512471141 pbc="F F F"
N        0.00000000       0.00000000       0.00000000       0.00000000       0.00000000       0.05595686
N        0.00000000       0.00000000       3.06060606       0.00000000       0.00000000      -0.05595686
2
Properties=species:S:1:pos:R:3:forces:R:3 energy=-5.96540557367259 pbc="F F F"
N        0.00000000       0.00000000       0.00000000       0.00000000       0.00000000       0.06240765
N        0.00000000       0.00000000       3.11939394       0.00000000       0.00000000      -0.06240765
2
Properties=species:S:1:pos:R:3:forces:R:3 energy=-5.96170374033301 pbc="F F F"
N        0.00000000       0.00000000       0.00000000       0.00000000       0.00000000       0.06257379
N        0.00000000       0.00000000       3.17818182       0.00000000       0.00000000      -0.06257379
2
Properties=species:S:1:pos:R:3:forces:R:3 energy=-5.9581138496113795 pbc="F F F"
N        0.00000000       0.00000000       0.00000000       0.00000000       0.00000000       0.05932305
N        0.00000000       0.00000000       3.23696970       0.00000000       0.00000000      -0.05932305
2
Properties=species:S:1:pos:R:3:forces:R:3 energy=-5.954719802193237 pbc="F F F"
N        0.00000000       0.00000000       0.00000000       0.00000000       0.00000000       0.05628875
N        0.00000000       0.00000000       3.29575758       0.00000000       0.00000000      -0.05628875
2
Properties=species:S:1:pos:R:3:forces:R:3 energy=-5.951484352823584 pbc="F F F"
N        0.00000000       0.00000000       0.00000000       0.00000000       0.00000000       0.05397255
N        0.00000000       0.00000000       3.35454545       0.00000000       0.00000000      -0.05397255
2
Properties=species:S:1:pos:R:3:forces:R:3 energy=-5.948380623119838 pbc="F F F"
N        0.00000000       0.00000000       0.00000000       0.00000000       0.00000000       0.05151754
N        0.00000000       0.00000000       3.41333333       0.00000000       0.00000000      -0.05151754
2
Properties=species:S:1:pos:R:3:forces:R:3 energy=-5.9454339947375985 pbc="F F F"
N        0.00000000       0.00000000       0.00000000       0.00000000       0.00000000       0.04876859
N        0.00000000       0.00000000       3.47212121       0.00000000       0.00000000      -0.04876859
2
Properties=species:S:1:pos:R:3:forces:R:3 energy=-5.942637174543741 pbc="F F F"
N        0.00000000       0.00000000       0.00000000       0.00000000       0.00000000       0.04631025
N        0.00000000       0.00000000       3.53090909       0.00000000       0.00000000      -0.04631025
2
Properties=species:S:1:pos:R:3:forces:R:3 energy=-5.939973039242445 pbc="F F F"
N        0.00000000       0.00000000       0.00000000       0.00000000       0.00000000       0.04454111
N        0.00000000       0.00000000       3.58969697       0.00000000       0.00000000      -0.04454111
2
Properties=species:S:1:pos:R:3:forces:R:3 energy=-5.9373936216740875 pbc="F F F"
N        0.00000000       0.00000000       0.00000000       0.00000000       0.00000000       0.04311503
N        0.00000000       0.00000000       3.64848485       0.00000000       0.00000000      -0.04311503
2
Properties=species:S:1:pos:R:3:forces:R:3 energy=-5.934909765704445 pbc="F F F"
N        0.00000000       0.00000000       0.00000000       0.00000000       0.00000000       0.04119416
N        0.00000000       0.00000000       3.70727273       0.00000000       0.00000000      -0.04119416
2
Properties=species:S:1:pos:R:3:forces:R:3 energy=-5.932571080849077 pbc="F F F"
N        0.00000000       0.00000000       0.00000000       0.00000000       0.00000000       0.03810680
N        0.00000000       0.00000000       3.76606061       0.00000000       0.00000000      -0.03810680
2
Properties=species:S:1:pos:R:3:forces:R:3 energy=-5.930452631618602 pbc="F F F"
N        0.00000000       0.00000000       0.00000000       0.00000000       0.00000000       0.03379753
N        0.00000000       0.00000000       3.82484848       0.00000000       0.00000000      -0.03379753
2
Properties=species:S:1:pos:R:3:forces:R:3 energy=-5.928611077211656 pbc="F F F"
N        0.00000000       0.00000000       0.00000000       0.00000000       0.00000000       0.02879981
N        0.00000000       0.00000000       3.88363636       0.00000000       0.00000000      -0.02879981
2
Properties=species:S:1:pos:R:3:forces:R:3 energy=-5.927068498253314 pbc="F F F"
N        0.00000000       0.00000000       0.00000000       0.00000000       0.00000000       0.02386630
N        0.00000000       0.00000000       3.94242424       0.00000000       0.00000000      -0.02386630
2
Properties=species:S:1:pos:R:3:forces:R:3 energy=-5.925798126130408 pbc="F F F"
N        0.00000000       0.00000000       0.00000000       0.00000000       0.00000000       0.01957822
N        0.00000000       0.00000000       4.00121212       0.00000000       0.00000000      -0.01957822
2
Properties=species:S:1:pos:R:3:forces:R:3 energy=-5.924749174755717 pbc="F F F"
N        0.00000000       0.00000000       0.00000000       0.00000000       0.00000000       0.01618421
N        0.00000000       0.00000000       4.06000000       0.00000000       0.00000000      -0.01618421
2
Properties=species:S:1:pos:R:3:forces:R:3 energy=-5.923873571167274 pbc="F F F"
N        0.00000000       0.00000000       0.00000000       0.00000000       0.00000000       0.01367019
N        0.00000000       0.00000000       4.11878788       0.00000000       0.00000000      -0.01367019
2
Properties=species:S:1:pos:R:3:forces:R:3 energy=-5.923127904652653 pbc="F F F"
N        0.00000000       0.00000000       0.00000000       0.00000000       0.00000000       0.01189253
N        0.00000000       0.00000000       4.17757576       0.00000000       0.00000000      -0.01189253
2
Properties=species:S:1:pos:R:3:forces:R:3 energy=-5.922466768253787 pbc="F F F"
N        0.00000000       0.00000000       0.00000000       0.00000000       0.00000000       0.01065494
N        0.00000000       0.00000000       4.23636364       0.00000000       0.00000000      -0.01065494
2
Properties=species:S:1:pos:R:3:forces:R:3 energy=-5.921869496889843 pbc="F F F"
N        0.00000000       0.00000000       0.00000000       0.00000000       0.00000000       0.00972087
N        0.00000000       0.00000000       4.29515152       0.00000000       0.00000000      -0.00972087
2
Properties=species:S:1:pos:R:3:forces:R:3 energy=-5.921324924011303 pbc="F F F"
N        0.00000000       0.00000000       0.00000000       0.00000000       0.00000000       0.00881953
N        0.00000000       0.00000000       4.35393939       0.00000000       0.00000000      -0.00881953
2
Properties=species:S:1:pos:R:3:forces:R:3 energy=-5.920835211740355 pbc="F F F"
N        0.00000000       0.00000000       0.00000000       0.00000000       0.00000000       0.00769211
N        0.00000000       0.00000000       4.41272727       0.00000000       0.00000000      -0.00769211
2
Properties=species:S:1:pos:R:3:forces:R:3 energy=-5.920429224882057 pbc="F F F"
N        0.00000000       0.00000000       0.00000000       0.00000000       0.00000000       0.00617721
N        0.00000000       0.00000000       4.47151515       0.00000000       0.00000000      -0.00617721
2
Properties=species:S:1:pos:R:3:forces:R:3 energy=-5.9201158032587005 pbc="F F F"
N        0.00000000       0.00000000       0.00000000       0.00000000       0.00000000       0.00428384
N        0.00000000       0.00000000       4.53030303       0.00000000       0.00000000      -0.00428384
2
Properties=species:S:1:pos:R:3:forces:R:3 energy=-5.919925736446999 pbc="F F F"
N        0.00000000       0.00000000       0.00000000       0.00000000       0.00000000       0.00221284
N        0.00000000       0.00000000       4.58909091       0.00000000       0.00000000      -0.00221284
2
Properties=species:S:1:pos:R:3:forces:R:3 energy=-5.919854553614522 pbc="F F F"
N        0.00000000       0.00000000       0.00000000       0.00000000       0.00000000       0.00030527
N        0.00000000       0.00000000       4.64787879       0.00000000       0.00000000      -0.00030527
2
Properties=species:S:1:pos:R:3:forces:R:3 energy=-5.919878732419282 pbc="F F F"
N        0.00000000       0.00000000       0.00000000       0.00000000       0.00000000      -0.00106772
N        0.00000000       0.00000000       4.70666667       0.00000000       0.00000000       0.00106772
2
Properties=species:S:1:pos:R:3:forces:R:3 energy=-5.919966198138718 pbc="F F F"
N        0.00000000       0.00000000       0.00000000       0.00000000       0.00000000      -0.00162122
N        0.00000000       0.00000000       4.76545455       0.00000000       0.00000000       0.00162122
2
Properties=species:S:1:pos:R:3:forces:R:3 energy=-5.920051530513339 pbc="F F F"
N        0.00000000       0.00000000       0.00000000       0.00000000       0.00000000      -0.00123846
N        0.00000000       0.00000000       4.82424242       0.00000000       0.00000000       0.00123846
2
Properties=species:S:1:pos:R:3:forces:R:3 energy=-5.920090323380747 pbc="F F F"
N        0.00000000       0.00000000       0.00000000       0.00000000       0.00000000       0.00001277
N        0.00000000       0.00000000       4.88303030       0.00000000       0.00000000      -0.00001277
2
Properties=species:S:1:pos:R:3:forces:R:3 energy=-5.920039153852199 pbc="F F F"
N        0.00000000       0.00000000       0.00000000       0.00000000       0.00000000       0.00191853
N        0.00000000       0.00000000       4.94181818       0.00000000       0.00000000      -0.00191853
2
Properties=species:S:1:pos:R:3:forces:R:3 energy=-5.919859401761604 pbc="F F F"
N        0.00000000       0.00000000       0.00000000       0.00000000       0.00000000       0.00419480
N        0.00000000       0.00000000       5.00060606       0.00000000       0.00000000      -0.00419480
2
Properties=species:S:1:pos:R:3:forces:R:3 energy=-5.919543950962476 pbc="F F F"
N        0.00000000       0.00000000       0.00000000       0.00000000       0.00000000       0.00655399
N        0.00000000       0.00000000       5.05939394       0.00000000       0.00000000      -0.00655399
2
Properties=species:S:1:pos:R:3:forces:R:3 energy=-5.919090482487292 pbc="F F F"
N        0.00000000       0.00000000       0.00000000       0.00000000       0.00000000       0.00875193
N        0.00000000       0.00000000       5.11818182       0.00000000       0.00000000      -0.00875193
2
Properties=species:S:1:pos:R:3:forces:R:3 energy=-5.918517688198804 pbc="F F F"
N        0.00000000       0.00000000       0.00000000       0.00000000       0.00000000       0.01059960
N        0.00000000       0.00000000       5.17696970       0.00000000       0.00000000      -0.01059960
2
Properties=species:S:1:pos:R:3:forces:R:3 energy=-5.917857640207579 pbc="F F F"
N        0.00000000       0.00000000       0.00000000       0.00000000       0.00000000       0.01196041
N        0.00000000       0.00000000       5.23575758       0.00000000       0.00000000      -0.01196041
2
Properties=species:S:1:pos:R:3:forces:R:3 energy=-5.917128129664082 pbc="F F F"
N        0.00000000       0.00000000       0.00000000       0.00000000       0.00000000       0.01273899
N        0.00000000       0.00000000       5.29454545       0.00000000       0.00000000      -0.01273899
2
Properties=species:S:1:pos:R:3:forces:R:3 energy=-5.916369862531874 pbc="F F F"
N        0.00000000       0.00000000       0.00000000       0.00000000       0.00000000       0.01287925
N        0.00000000       0.00000000       5.35333333       0.00000000       0.00000000      -0.01287925
2
Properties=species:S:1:pos:R:3:forces:R:3 energy=-5.915622613967917 pbc="F F F"
N        0.00000000       0.00000000       0.00000000       0.00000000       0.00000000       0.01237511
N        0.00000000       0.00000000       5.41212121       0.00000000       0.00000000      -0.01237511
2
Properties=species:S:1:pos:R:3:forces:R:3 energy=-5.914923318548579 pbc="F F F"
N        0.00000000       0.00000000       0.00000000       0.00000000       0.00000000       0.01127800
N        0.00000000       0.00000000       5.47090909       0.00000000       0.00000000      -0.01127800
2
Properties=species:S:1:pos:R:3:forces:R:3 energy=-5.914308931589558 pbc="F F F"
N        0.00000000       0.00000000       0.00000000       0.00000000       0.00000000       0.00970554
N        0.00000000       0.00000000       5.52969697       0.00000000       0.00000000      -0.00970554
2
Properties=species:S:1:pos:R:3:forces:R:3 energy=-5.913792585456584 pbc="F F F"
N        0.00000000       0.00000000       0.00000000       0.00000000       0.00000000       0.00783114
N        0.00000000       0.00000000       5.58848485       0.00000000       0.00000000      -0.00783114
2
Properties=species:S:1:pos:R:3:forces:R:3 energy=-5.9133883832167475 pbc="F F F"
N        0.00000000       0.00000000       0.00000000       0.00000000       0.00000000       0.00586701
N        0.00000000       0.00000000       5.64727273       0.00000000       0.00000000      -0.00586701
2
Properties=species:S:1:pos:R:3:forces:R:3 energy=-5.913099952715304 pbc="F F F"
N        0.00000000       0.00000000       0.00000000       0.00000000       0.00000000       0.00402553
N        0.00000000       0.00000000       5.70606061       0.00000000       0.00000000      -0.00402553
2
Properties=species:S:1:pos:R:3:forces:R:3 energy=-5.912909956653168 pbc="F F F"
N        0.00000000       0.00000000       0.00000000       0.00000000       0.00000000       0.00248834
N        0.00000000       0.00000000       5.76484848       0.00000000       0.00000000      -0.00248834
2
Properties=species:S:1:pos:R:3:forces:R:3 energy=-5.912800117421188 pbc="F F F"
N        0.00000000       0.00000000       0.00000000       0.00000000       0.00000000       0.00137400
N        0.00000000       0.00000000       5.82363636       0.00000000       0.00000000      -0.00137400
2
Properties=species:S:1:pos:R:3:forces:R:3 energy=-5.912737864150048 pbc="F F F"
N        0.00000000       0.00000000       0.00000000       0.00000000       0.00000000       0.00070938
N        0.00000000       0.00000000       5.88242424       0.00000000       0.00000000      -0.00070938
2
Properties=species:S:1:pos:R:3:forces:R:3 energy=-5.912705897084305 pbc="F F F"
N        0.00000000       0.00000000       0.00000000       0.00000000       0.00000000       0.00042332
N        0.00000000       0.00000000       5.94121212       0.00000000       0.00000000      -0.00042332
2
Properties=species:S:1:pos:R:3:forces:R:3 energy=-5.912685019143071 pbc="F F F"
N        0.00000000       0.00000000       0.00000000       0.00000000       0.00000000       0.00035882
N        0.00000000       0.00000000       6.00000000       0.00000000       0.00000000      -0.00035882
