2
Properties=species:S:1:pos:R:3:forces:R:3 energy=97608.55807633749 pbc="F F F"
Ni       0.00000000       0.00000000       0.00000000       0.00000000       0.00000000 -759355.18750000
Ni       0.00000000       0.00000000       0.18000000       0.00000000       0.00000000  759355.18750000
2
Properties=species:S:1:pos:R:3:forces:R:3 energy=57205.7533888375 pbc="F F F"
Ni       0.00000000       0.00000000       0.00000000       0.00000000       0.00000000 -594515.31250000
Ni       0.00000000       0.00000000       0.23878788       0.00000000       0.00000000  594515.31250000
2
Properties=species:S:1:pos:R:3:forces:R:3 energy=29241.442841962493 pbc="F F F"
Ni       0.00000000       0.00000000       0.00000000       0.00000000       0.00000000 -361898.96875000
Ni       0.00000000       0.00000000       0.29757576       0.00000000       0.00000000  361898.96875000
2
Properties=species:S:1:pos:R:3:forces:R:3 energy=13364.894013840662 pbc="F F F"
Ni       0.00000000       0.00000000       0.00000000       0.00000000       0.00000000 -187406.23437500
Ni       0.00000000       0.00000000       0.35636364       0.00000000       0.00000000  187406.23437500
2
Properties=species:S:1:pos:R:3:forces:R:3 energy=5680.950654471997 pbc="F F F"
Ni       0.00000000       0.00000000       0.00000000       0.00000000       0.00000000  -86726.42968750
Ni       0.00000000       0.00000000       0.41515152       0.00000000       0.00000000   86726.42968750
2
Properties=species:S:1:pos:R:3:forces:R:3 energy=3396.0724806597113 pbc="F F F"
Ni       0.00000000       0.00000000       0.00000000       0.00000000       0.00000000  -16579.59179688
Ni       0.00000000       0.00000000       0.47393939       0.00000000       0.00000000   16579.59179688
2
Properties=species:S:1:pos:R:3:forces:R:3 energy=1977.3315138913467 pbc="F F F"
Ni       0.00000000       0.00000000       0.00000000       0.00000000       0.00000000  -24532.70507812
Ni       0.00000000       0.00000000       0.53272727       0.00000000       0.00000000   24532.70507812
2
Properties=species:S:1:pos:R:3:forces:R:3 energy=957.6535964583953 pbc="F F F"
Ni       0.00000000       0.00000000       0.00000000       0.00000000       0.00000000  -11701.42578125
Ni       0.00000000       0.00000000       0.59151515       0.00000000       0.00000000   11701.42578125
2
Properties=species:S:1:pos:R:3:forces:R:3 energy=399.66180577244216 pbc="F F F"
Ni       0.00000000       0.00000000       0.00000000       0.00000000       0.00000000   -7202.93164062
Ni       0.00000000       0.00000000       0.65030303       0.00000000       0.00000000    7202.93164062
2
Properties=species:S:1:pos:R:3:forces:R:3 energy=148.80822924216665 pbc="F F F"
Ni       0.00000000       0.00000000       0.00000000       0.00000000       0.00000000   -2706.29858398
Ni       0.00000000       0.00000000       0.70909091       0.00000000       0.00000000    2706.29858398
2
Properties=species:S:1:pos:R:3:forces:R:3 energy=45.63296698739973 pbc="F F F"
Ni       0.00000000       0.00000000       0.00000000       0.00000000       0.00000000    -994.19183350
Ni       0.00000000       0.00000000       0.76787879       0.00000000       0.00000000     994.19183350
2
Properties=species:S:1:pos:R:3:forces:R:3 energy=9.8492892240298 pbc="F F F"
Ni       0.00000000       0.00000000       0.00000000       0.00000000       0.00000000    -299.30895996
Ni       0.00000000       0.00000000       0.82666667       0.00000000       0.00000000     299.30895996
2
Properties=species:S:1:pos:R:3:forces:R:3 energy=0.8172528545356432 pbc="F F F"
Ni       0.00000000       0.00000000       0.00000000       0.00000000       0.00000000     -45.23830795
Ni       0.00000000       0.00000000       0.88545455       0.00000000       0.00000000      45.23830795
2
Properties=species:S:1:pos:R:3:forces:R:3 energy=0.34168848074987945 pbc="F F F"
Ni       0.00000000       0.00000000       0.00000000       0.00000000       0.00000000      10.17020702
Ni       0.00000000       0.00000000       0.94424242       0.00000000       0.00000000     -10.17020702
2
Properties=species:S:1:pos:R:3:forces:R:3 energy=1.5311347778143516 pbc="F F F"
Ni       0.00000000       0.00000000       0.00000000       0.00000000       0.00000000      31.19350433
Ni       0.00000000       0.00000000       1.00303030       0.00000000       0.00000000     -31.19350433
2
Properties=species:S:1:pos:R:3:forces:R:3 energy=3.626730264169634 pbc="F F F"
Ni       0.00000000       0.00000000       0.00000000       0.00000000       0.00000000      37.21018219
Ni       0.00000000       0.00000000       1.06181818       0.00000000       0.00000000     -37.21018219
2
Properties=species:S:1:pos:R:3:forces:R:3 energy=5.655108275309913 pbc="F F F"
Ni       0.00000000       0.00000000       0.00000000       0.00000000       0.00000000      28.78419113
Ni       0.00000000       0.00000000       1.12060606       0.00000000       0.00000000     -28.78419113
2
Properties=species:S:1:pos:R:3:forces:R:3 energy=6.684529102308768 pbc="F F F"
Ni       0.00000000       0.00000000       0.00000000       0.00000000       0.00000000       7.58874226
Ni       0.00000000       0.00000000       1.17939394       0.00000000       0.00000000      -7.58874226
2
Properties=species:S:1:pos:R:3:forces:R:3 energy=6.9378865582734734 pbc="F F F"
Ni       0.00000000       0.00000000       0.00000000       0.00000000       0.00000000      -2.00973678
Ni       0.00000000       0.00000000       1.23818182       0.00000000       0.00000000       2.00973678
2
Properties=species:S:1:pos:R:3:forces:R:3 energy=6.474373421051971 pbc="F F F"
Ni       0.00000000       0.00000000       0.00000000       0.00000000       0.00000000     -14.91423702
Ni       0.00000000       0.00000000       1.29696970       0.00000000       0.00000000      14.91423702
2
Properties=species:S:1:pos:R:3:forces:R:3 energy=5.304722487120918 pbc="F F F"
Ni       0.00000000       0.00000000       0.00000000       0.00000000       0.00000000     -23.98181725
Ni       0.00000000       0.00000000       1.35575758       0.00000000       0.00000000      23.98181725
2
Properties=species:S:1:pos:R:3:forces:R:3 energy=3.7708699946433937 pbc="F F F"
Ni       0.00000000       0.00000000       0.00000000       0.00000000       0.00000000     -26.88114548
Ni       0.00000000       0.00000000       1.41454545       0.00000000       0.00000000      26.88114548
2
Properties=species:S:1:pos:R:3:forces:R:3 energy=2.232375100964952 pbc="F F F"
Ni       0.00000000       0.00000000       0.00000000       0.00000000       0.00000000     -25.00229836
Ni       0.00000000       0.00000000       1.47333333       0.00000000       0.00000000      25.00229836
2
Properties=species:S:1:pos:R:3:forces:R:3 energy=0.8703204809253412 pbc="F F F"
Ni       0.00000000       0.00000000       0.00000000       0.00000000       0.00000000     -21.15028763
Ni       0.00000000       0.00000000       1.53212121       0.00000000       0.00000000      21.15028763
2
Properties=species:S:1:pos:R:3:forces:R:3 energy=-0.2472944343417816 pbc="F F F"
Ni       0.00000000       0.00000000       0.00000000       0.00000000       0.00000000     -17.05955505
Ni       0.00000000       0.00000000       1.59090909       0.00000000       0.00000000      17.05955505
2
Properties=species:S:1:pos:R:3:forces:R:3 energy=-1.1615150109784151 pbc="F F F"
Ni       0.00000000       0.00000000       0.00000000       0.00000000       0.00000000     -14.09533215
Ni       0.00000000       0.00000000       1.64969697       0.00000000       0.00000000      14.09533215
2
Properties=species:S:1:pos:R:3:forces:R:3 energy=-1.919704444223812 pbc="F F F"
Ni       0.00000000       0.00000000       0.00000000       0.00000000       0.00000000     -11.78155422
Ni       0.00000000       0.00000000       1.70848485       0.00000000       0.00000000      11.78155422
2
Properties=species:S:1:pos:R:3:forces:R:3 energy=-2.548160258044265 pbc="F F F"
Ni       0.00000000       0.00000000       0.00000000       0.00000000       0.00000000      -9.69184303
Ni       0.00000000       0.00000000       1.76727273       0.00000000       0.00000000       9.69184303
2
Properties=species:S:1:pos:R:3:forces:R:3 energy=-3.0730312862808202 pbc="F F F"
Ni       0.00000000       0.00000000       0.00000000       0.00000000       0.00000000      -8.14190960
Ni       0.00000000       0.00000000       1.82606061       0.00000000       0.00000000       8.14190960
2
Properties=species:S:1:pos:R:3:forces:R:3 energy=-3.4982673990090443 pbc="F F F"
Ni       0.00000000       0.00000000       0.00000000       0.00000000       0.00000000      -6.39393187
Ni       0.00000000       0.00000000       1.88484848       0.00000000       0.00000000       6.39393187
2
Properties=species:S:1:pos:R:3:forces:R:3 energy=-3.826882714341523 pbc="F F F"
Ni       0.00000000       0.00000000       0.00000000       0.00000000       0.00000000      -4.74550200
Ni       0.00000000       0.00000000       1.94363636       0.00000000       0.00000000       4.74550200
2
Properties=species:S:1:pos:R:3:forces:R:3 energy=-4.058326169195528 pbc="F F F"
Ni       0.00000000       0.00000000       0.00000000       0.00000000       0.00000000      -3.18072319
Ni       0.00000000       0.00000000       2.00242424       0.00000000       0.00000000       3.18072319
2
Properties=species:S:1:pos:R:3:forces:R:3 energy=-4.2053565818881955 pbc="F F F"
Ni       0.00000000       0.00000000       0.00000000       0.00000000       0.00000000      -1.85834980
Ni       0.00000000       0.00000000       2.06121212       0.00000000       0.00000000       1.85834980
2
Properties=species:S:1:pos:R:3:forces:R:3 energy=-4.282663705061977 pbc="F F F"
Ni       0.00000000       0.00000000       0.00000000       0.00000000       0.00000000      -0.82030350
Ni       0.00000000       0.00000000       2.12000000       0.00000000       0.00000000       0.82030350
2
Properties=species:S:1:pos:R:3:forces:R:3 energy=-4.307947275673991 pbc="F F F"
Ni       0.00000000       0.00000000       0.00000000       0.00000000       0.00000000      -0.10061774
Ni       0.00000000       0.00000000       2.17878788       0.00000000       0.00000000       0.10061774
2
Properties=species:S:1:pos:R:3:forces:R:3 energy=-4.300106527233355 pbc="F F F"
Ni       0.00000000       0.00000000       0.00000000       0.00000000       0.00000000       0.33505881
Ni       0.00000000       0.00000000       2.23757576       0.00000000       0.00000000      -0.33505881
2
Properties=species:S:1:pos:R:3:forces:R:3 energy=-4.272170406923121 pbc="F F F"
Ni       0.00000000       0.00000000       0.00000000       0.00000000       0.00000000       0.58850390
Ni       0.00000000       0.00000000       2.29636364       0.00000000       0.00000000      -0.58850390
2
Properties=species:S:1:pos:R:3:forces:R:3 energy=-4.233089911772428 pbc="F F F"
Ni       0.00000000       0.00000000       0.00000000       0.00000000       0.00000000       0.72926521
Ni       0.00000000       0.00000000       2.35515152       0.00000000       0.00000000      -0.72926521
2
Properties=species:S:1:pos:R:3:forces:R:3 energy=-4.1870659386787334 pbc="F F F"
Ni       0.00000000       0.00000000       0.00000000       0.00000000       0.00000000       0.83758354
Ni       0.00000000       0.00000000       2.41393939       0.00000000       0.00000000      -0.83758354
2
Properties=species:S:1:pos:R:3:forces:R:3 energy=-4.134557107327256 pbc="F F F"
Ni       0.00000000       0.00000000       0.00000000       0.00000000       0.00000000       0.94251496
Ni       0.00000000       0.00000000       2.47272727       0.00000000       0.00000000      -0.94251496
2
Properties=species:S:1:pos:R:3:forces:R:3 energy=-4.077535685703623 pbc="F F F"
Ni       0.00000000       0.00000000       0.00000000       0.00000000       0.00000000       0.98702925
Ni       0.00000000       0.00000000       2.53151515       0.00000000       0.00000000      -0.98702925
2
Properties=species:S:1:pos:R:3:forces:R:3 energy=-4.019484693938124 pbc="F F F"
Ni       0.00000000       0.00000000       0.00000000       0.00000000       0.00000000       0.98039764
Ni       0.00000000       0.00000000       2.59030303       0.00000000       0.00000000      -0.98039764
2
Properties=species:S:1:pos:R:3:forces:R:3 energy=-3.9629999885771707 pbc="F F F"
Ni       0.00000000       0.00000000       0.00000000       0.00000000       0.00000000       0.93723023
Ni       0.00000000       0.00000000       2.64909091       0.00000000       0.00000000      -0.93723023
2
Properties=species:S:1:pos:R:3:forces:R:3 energy=-3.9094470328040565 pbc="F F F"
Ni       0.00000000       0.00000000       0.00000000       0.00000000       0.00000000       0.88545734
Ni       0.00000000       0.00000000       2.70787879       0.00000000       0.00000000      -0.88545734
2
Properties=species:S:1:pos:R:3:forces:R:3 energy=-3.8587036867867885 pbc="F F F"
Ni       0.00000000       0.00000000       0.00000000       0.00000000       0.00000000       0.84262651
Ni       0.00000000       0.00000000       2.76666667       0.00000000       0.00000000      -0.84262651
2
Properties=species:S:1:pos:R:3:forces:R:3 energy=-3.810202019690449 pbc="F F F"
Ni       0.00000000       0.00000000       0.00000000       0.00000000       0.00000000       0.80849403
Ni       0.00000000       0.00000000       2.82545455       0.00000000       0.00000000      -0.80849403
2
Properties=species:S:1:pos:R:3:forces:R:3 energy=-3.7635668021437447 pbc="F F F"
Ni       0.00000000       0.00000000       0.00000000       0.00000000       0.00000000       0.77841651
Ni       0.00000000       0.00000000       2.88424242       0.00000000       0.00000000      -0.77841651
2
Properties=species:S:1:pos:R:3:forces:R:3 energy=-3.718646228548271 pbc="F F F"
Ni       0.00000000       0.00000000       0.00000000       0.00000000       0.00000000       0.75015110
Ni       0.00000000       0.00000000       2.94303030       0.00000000       0.00000000      -0.75015110
2
Properties=species:S:1:pos:R:3:forces:R:3 energy=-3.6753049488267213 pbc="F F F"
Ni       0.00000000       0.00000000       0.00000000       0.00000000       0.00000000       0.72500473
Ni       0.00000000       0.00000000       3.00181818       0.00000000       0.00000000      -0.72500473
2
Properties=species:S:1:pos:R:3:forces:R:3 energy=-3.6333311448861085 pbc="F F F"
Ni       0.00000000       0.00000000       0.00000000       0.00000000       0.00000000       0.70335662
Ni       0.00000000       0.00000000       3.06060606       0.00000000       0.00000000      -0.70335662
2
Properties=species:S:1:pos:R:3:forces:R:3 energy=-3.5926024412785695 pbc="F F F"
Ni       0.00000000       0.00000000       0.00000000       0.00000000       0.00000000       0.68206728
Ni       0.00000000       0.00000000       3.11939394       0.00000000       0.00000000      -0.68206728
2
Properties=species:S:1:pos:R:3:forces:R:3 energy=-3.5531653642805545 pbc="F F F"
Ni       0.00000000       0.00000000       0.00000000       0.00000000       0.00000000       0.65949398
Ni       0.00000000       0.00000000       3.17818182       0.00000000       0.00000000      -0.65949398
2
Properties=species:S:1:pos:R:3:forces:R:3 energy=-3.51505670535654 pbc="F F F"
Ni       0.00000000       0.00000000       0.00000000       0.00000000       0.00000000       0.63708830
Ni       0.00000000       0.00000000       3.23696970       0.00000000       0.00000000      -0.63708830
2
Properties=species:S:1:pos:R:3:forces:R:3 energy=-3.478253027105414 pbc="F F F"
Ni       0.00000000       0.00000000       0.00000000       0.00000000       0.00000000       0.61485976
Ni       0.00000000       0.00000000       3.29575758       0.00000000       0.00000000      -0.61485976
2
Properties=species:S:1:pos:R:3:forces:R:3 energy=-3.4428019962196 pbc="F F F"
Ni       0.00000000       0.00000000       0.00000000       0.00000000       0.00000000       0.59069765
Ni       0.00000000       0.00000000       3.35454545       0.00000000       0.00000000      -0.59069765
2
Properties=species:S:1:pos:R:3:forces:R:3 energy=-3.4088748989289015 pbc="F F F"
Ni       0.00000000       0.00000000       0.00000000       0.00000000       0.00000000       0.56285650
Ni       0.00000000       0.00000000       3.41333333       0.00000000       0.00000000      -0.56285650
2
Properties=species:S:1:pos:R:3:forces:R:3 energy=-3.3766995906948796 pbc="F F F"
Ni       0.00000000       0.00000000       0.00000000       0.00000000       0.00000000       0.53118390
Ni       0.00000000       0.00000000       3.47212121       0.00000000       0.00000000      -0.53118390
2
Properties=species:S:1:pos:R:3:forces:R:3 energy=-3.346477488531461 pbc="F F F"
Ni       0.00000000       0.00000000       0.00000000       0.00000000       0.00000000       0.49663761
Ni       0.00000000       0.00000000       3.53090909       0.00000000       0.00000000      -0.49663761
2
Properties=species:S:1:pos:R:3:forces:R:3 energy=-3.3183423015840807 pbc="F F F"
Ni       0.00000000       0.00000000       0.00000000       0.00000000       0.00000000       0.46034974
Ni       0.00000000       0.00000000       3.58969697       0.00000000       0.00000000      -0.46034974
2
Properties=species:S:1:pos:R:3:forces:R:3 energy=-3.2923672153652737 pbc="F F F"
Ni       0.00000000       0.00000000       0.00000000       0.00000000       0.00000000       0.42325702
Ni       0.00000000       0.00000000       3.64848485       0.00000000       0.00000000      -0.42325702
2
Properties=species:S:1:pos:R:3:forces:R:3 energy=-3.2685750320478864 pbc="F F F"
Ni       0.00000000       0.00000000       0.00000000       0.00000000       0.00000000       0.38627422
Ni       0.00000000       0.00000000       3.70727273       0.00000000       0.00000000      -0.38627422
2
Properties=species:S:1:pos:R:3:forces:R:3 energy=-3.2469285260159575 pbc="F F F"
Ni       0.00000000       0.00000000       0.00000000       0.00000000       0.00000000       0.35042474
Ni       0.00000000       0.00000000       3.76606061       0.00000000       0.00000000      -0.35042474
2
Properties=species:S:1:pos:R:3:forces:R:3 energy=-3.227331562265788 pbc="F F F"
Ni       0.00000000       0.00000000       0.00000000       0.00000000       0.00000000       0.31667578
Ni       0.00000000       0.00000000       3.82484848       0.00000000       0.00000000      -0.31667578
2
Properties=species:S:1:pos:R:3:forces:R:3 energy=-3.2096413801304555 pbc="F F F"
Ni       0.00000000       0.00000000       0.00000000       0.00000000       0.00000000       0.28565446
Ni       0.00000000       0.00000000       3.88363636       0.00000000       0.00000000      -0.28565446
2
Properties=species:S:1:pos:R:3:forces:R:3 energy=-3.193688588762237 pbc="F F F"
Ni       0.00000000       0.00000000       0.00000000       0.00000000       0.00000000       0.25750837
Ni       0.00000000       0.00000000       3.94242424       0.00000000       0.00000000      -0.25750837
2
Properties=species:S:1:pos:R:3:forces:R:3 energy=-3.1793123517120088 pbc="F F F"
Ni       0.00000000       0.00000000       0.00000000       0.00000000       0.00000000       0.23198722
Ni       0.00000000       0.00000000       4.00121212       0.00000000       0.00000000      -0.23198722
2
Properties=species:S:1:pos:R:3:forces:R:3 energy=-3.1663688306139184 pbc="F F F"
Ni       0.00000000       0.00000000       0.00000000       0.00000000       0.00000000       0.20868433
Ni       0.00000000       0.00000000       4.06000000       0.00000000       0.00000000      -0.20868433
2
Properties=species:S:1:pos:R:3:forces:R:3 energy=-3.15473961619877 pbc="F F F"
Ni       0.00000000       0.00000000       0.00000000       0.00000000       0.00000000       0.18727657
Ni       0.00000000       0.00000000       4.11878788       0.00000000       0.00000000      -0.18727657
2
Properties=species:S:1:pos:R:3:forces:R:3 energy=-3.1443158025984737 pbc="F F F"
Ni       0.00000000       0.00000000       0.00000000       0.00000000       0.00000000       0.16763517
Ni       0.00000000       0.00000000       4.17757576       0.00000000       0.00000000      -0.16763517
2
Properties=species:S:1:pos:R:3:forces:R:3 energy=-3.1349944657522544 pbc="F F F"
Ni       0.00000000       0.00000000       0.00000000       0.00000000       0.00000000       0.14979532
Ni       0.00000000       0.00000000       4.23636364       0.00000000       0.00000000      -0.14979532
2
Properties=species:S:1:pos:R:3:forces:R:3 energy=-3.126666972224727 pbc="F F F"
Ni       0.00000000       0.00000000       0.00000000       0.00000000       0.00000000       0.13384594
Ni       0.00000000       0.00000000       4.29515152       0.00000000       0.00000000      -0.13384594
2
Properties=species:S:1:pos:R:3:forces:R:3 energy=-3.1192193736796794 pbc="F F F"
Ni       0.00000000       0.00000000       0.00000000       0.00000000       0.00000000       0.11982446
Ni       0.00000000       0.00000000       4.35393939       0.00000000       0.00000000      -0.11982446
2
Properties=species:S:1:pos:R:3:forces:R:3 energy=-3.1125405654607516 pbc="F F F"
Ni       0.00000000       0.00000000       0.00000000       0.00000000       0.00000000       0.10765521
Ni       0.00000000       0.00000000       4.41272727       0.00000000       0.00000000      -0.10765521
2
Properties=species:S:1:pos:R:3:forces:R:3 energy=-3.1065290446750264 pbc="F F F"
Ni       0.00000000       0.00000000       0.00000000       0.00000000       0.00000000       0.09714662
Ni       0.00000000       0.00000000       4.47151515       0.00000000       0.00000000      -0.09714662
2
Properties=species:S:1:pos:R:3:forces:R:3 energy=-3.101092097566724 pbc="F F F"
Ni       0.00000000       0.00000000       0.00000000       0.00000000       0.00000000       0.08802867
Ni       0.00000000       0.00000000       4.53030303       0.00000000       0.00000000      -0.08802867
2
Properties=species:S:1:pos:R:3:forces:R:3 energy=-3.0961581719407376 pbc="F F F"
Ni       0.00000000       0.00000000       0.00000000       0.00000000       0.00000000       0.08000995
Ni       0.00000000       0.00000000       4.58909091       0.00000000       0.00000000      -0.08000995
2
Properties=species:S:1:pos:R:3:forces:R:3 energy=-3.0916682244016993 pbc="F F F"
Ni       0.00000000       0.00000000       0.00000000       0.00000000       0.00000000       0.07283489
Ni       0.00000000       0.00000000       4.64787879       0.00000000       0.00000000      -0.07283489
2
Properties=species:S:1:pos:R:3:forces:R:3 energy=-3.087581770349394 pbc="F F F"
Ni       0.00000000       0.00000000       0.00000000       0.00000000       0.00000000       0.06632325
Ni       0.00000000       0.00000000       4.70666667       0.00000000       0.00000000      -0.06632325
2
Properties=species:S:1:pos:R:3:forces:R:3 energy=-3.0838588370266606 pbc="F F F"
Ni       0.00000000       0.00000000       0.00000000       0.00000000       0.00000000       0.06038899
Ni       0.00000000       0.00000000       4.76545455       0.00000000       0.00000000      -0.06038899
2
Properties=species:S:1:pos:R:3:forces:R:3 energy=-3.080468988579349 pbc="F F F"
Ni       0.00000000       0.00000000       0.00000000       0.00000000       0.00000000       0.05503352
Ni       0.00000000       0.00000000       4.82424242       0.00000000       0.00000000      -0.05503352
2
Properties=species:S:1:pos:R:3:forces:R:3 energy=-3.0773761401271718 pbc="F F F"
Ni       0.00000000       0.00000000       0.00000000       0.00000000       0.00000000       0.05032125
Ni       0.00000000       0.00000000       4.88303030       0.00000000       0.00000000      -0.05032125
2
Properties=species:S:1:pos:R:3:forces:R:3 energy=-3.074538999754817 pbc="F F F"
Ni       0.00000000       0.00000000       0.00000000       0.00000000       0.00000000       0.04633723
Ni       0.00000000       0.00000000       4.94181818       0.00000000       0.00000000      -0.04633723
2
Properties=species:S:1:pos:R:3:forces:R:3 energy=-3.071913086734355 pbc="F F F"
Ni       0.00000000       0.00000000       0.00000000       0.00000000       0.00000000       0.04314390
Ni       0.00000000       0.00000000       5.00060606       0.00000000       0.00000000      -0.04314390
2
Properties=species:S:1:pos:R:3:forces:R:3 energy=-3.0694508804128824 pbc="F F F"
Ni       0.00000000       0.00000000       0.00000000       0.00000000       0.00000000       0.04073729
Ni       0.00000000       0.00000000       5.05939394       0.00000000       0.00000000      -0.04073729
2
Properties=species:S:1:pos:R:3:forces:R:3 energy=-3.067109398921894 pbc="F F F"
Ni       0.00000000       0.00000000       0.00000000       0.00000000       0.00000000       0.03902052
Ni       0.00000000       0.00000000       5.11818182       0.00000000       0.00000000      -0.03902052
2
Properties=species:S:1:pos:R:3:forces:R:3 energy=-3.0648532154235237 pbc="F F F"
Ni       0.00000000       0.00000000       0.00000000       0.00000000       0.00000000       0.03780100
Ni       0.00000000       0.00000000       5.17696970       0.00000000       0.00000000      -0.03780100
2
Properties=species:S:1:pos:R:3:forces:R:3 energy=-3.062660286278479 pbc="F F F"
Ni       0.00000000       0.00000000       0.00000000       0.00000000       0.00000000       0.03681325
Ni       0.00000000       0.00000000       5.23575758       0.00000000       0.00000000      -0.03681325
2
Properties=species:S:1:pos:R:3:forces:R:3 energy=-3.0605252952417965 pbc="F F F"
Ni       0.00000000       0.00000000       0.00000000       0.00000000       0.00000000       0.03576541
Ni       0.00000000       0.00000000       5.29454545       0.00000000       0.00000000      -0.03576541
2
Properties=species:S:1:pos:R:3:forces:R:3 energy=-3.058461709699114 pbc="F F F"
Ni       0.00000000       0.00000000       0.00000000       0.00000000       0.00000000       0.03439528
Ni       0.00000000       0.00000000       5.35333333       0.00000000       0.00000000      -0.03439528
2
Properties=species:S:1:pos:R:3:forces:R:3 energy=-3.056491800348481 pbc="F F F"
Ni       0.00000000       0.00000000       0.00000000       0.00000000       0.00000000       0.03252545
Ni       0.00000000       0.00000000       5.41212121       0.00000000       0.00000000      -0.03252545
2
Properties=species:S:1:pos:R:3:forces:R:3 energy=-3.0546485818111244 pbc="F F F"
Ni       0.00000000       0.00000000       0.00000000       0.00000000       0.00000000       0.03009693
Ni       0.00000000       0.00000000       5.47090909       0.00000000       0.00000000      -0.03009693
2
Properties=species:S:1:pos:R:3:forces:R:3 energy=-3.052963528906933 pbc="F F F"
Ni       0.00000000       0.00000000       0.00000000       0.00000000       0.00000000       0.02717948
Ni       0.00000000       0.00000000       5.52969697       0.00000000       0.00000000      -0.02717948
2
Properties=species:S:1:pos:R:3:forces:R:3 energy=-3.051458963099036 pbc="F F F"
Ni       0.00000000       0.00000000       0.00000000       0.00000000       0.00000000       0.02395325
Ni       0.00000000       0.00000000       5.58848485       0.00000000       0.00000000      -0.02395325
2
Properties=species:S:1:pos:R:3:forces:R:3 energy=-3.050148084172023 pbc="F F F"
Ni       0.00000000       0.00000000       0.00000000       0.00000000       0.00000000       0.02066896
Ni       0.00000000       0.00000000       5.64727273       0.00000000       0.00000000      -0.02066896
2
Properties=species:S:1:pos:R:3:forces:R:3 energy=-3.049024524163979 pbc="F F F"
Ni       0.00000000       0.00000000       0.00000000       0.00000000       0.00000000       0.01758708
Ni       0.00000000       0.00000000       5.70606061       0.00000000       0.00000000      -0.01758708
2
Properties=species:S:1:pos:R:3:forces:R:3 energy=-3.0480714547898162 pbc="F F F"
Ni       0.00000000       0.00000000       0.00000000       0.00000000       0.00000000       0.01493344
Ni       0.00000000       0.00000000       5.76484848       0.00000000       0.00000000      -0.01493344
2
Properties=species:S:1:pos:R:3:forces:R:3 energy=-3.0472582511650814 pbc="F F F"
Ni       0.00000000       0.00000000       0.00000000       0.00000000       0.00000000       0.01285061
Ni       0.00000000       0.00000000       5.82363636       0.00000000       0.00000000      -0.01285061
2
Properties=species:S:1:pos:R:3:forces:R:3 energy=-3.0465486027893776 pbc="F F F"
Ni       0.00000000       0.00000000       0.00000000       0.00000000       0.00000000       0.01136603
Ni       0.00000000       0.00000000       5.88242424       0.00000000       0.00000000      -0.01136603
2
Properties=species:S:1:pos:R:3:forces:R:3 energy=-3.045911540989623 pbc="F F F"
Ni       0.00000000       0.00000000       0.00000000       0.00000000       0.00000000       0.01038567
Ni       0.00000000       0.00000000       5.94121212       0.00000000       0.00000000      -0.01038567
2
Properties=species:S:1:pos:R:3:forces:R:3 energy=-3.0453223561644145 pbc="F F F"
Ni       0.00000000       0.00000000       0.00000000       0.00000000       0.00000000       0.00971282
Ni       0.00000000       0.00000000       6.00000000       0.00000000       0.00000000      -0.00971282
