2
Properties=species:S:1:pos:R:3:forces:R:3 energy=-102619.62446757978 pbc="F F F"
O        0.00000000       0.00000000       0.00000000       0.00000000       0.00000000 1070230.37500000
O        0.00000000       0.00000000       0.18000000       0.00000000       0.00000000 -1070230.37500000
2
Properties=species:S:1:pos:R:3:forces:R:3 energy=-49541.4760300782 pbc="F F F"
O        0.00000000       0.00000000       0.00000000       0.00000000       0.00000000  716287.00000000
O        0.00000000       0.00000000       0.23878788       0.00000000       0.00000000 -716287.00000000
2
Properties=species:S:1:pos:R:3:forces:R:3 energy=-18496.642045701617 pbc="F F F"
O        0.00000000       0.00000000       0.00000000       0.00000000       0.00000000  354144.06250000
O        0.00000000       0.00000000       0.29757576       0.00000000       0.00000000 -354144.06250000
2
Properties=species:S:1:pos:R:3:forces:R:3 energy=-5235.395463665614 pbc="F F F"
O        0.00000000       0.00000000       0.00000000       0.00000000       0.00000000  123414.81250000
O        0.00000000       0.00000000       0.35636364       0.00000000       0.00000000 -123414.81250000
2
Properties=species:S:1:pos:R:3:forces:R:3 energy=-1140.8814255685897 pbc="F F F"
O        0.00000000       0.00000000       0.00000000       0.00000000       0.00000000   34675.42578125
O        0.00000000       0.00000000       0.41515152       0.00000000       0.00000000  -34675.42578125
2
Properties=species:S:1:pos:R:3:forces:R:3 energy=-146.04921119094624 pbc="F F F"
O        0.00000000       0.00000000       0.00000000       0.00000000       0.00000000    7215.19140625
O        0.00000000       0.00000000       0.47393939       0.00000000       0.00000000   -7215.19140625
2
Properties=species:S:1:pos:R:3:forces:R:3 energy=130.6114944166417 pbc="F F F"
O        0.00000000       0.00000000       0.00000000       0.00000000       0.00000000    1458.13891602
O        0.00000000       0.00000000       0.53272727       0.00000000       0.00000000   -1458.13891602
2
Properties=species:S:1:pos:R:3:forces:R:3 energy=127.94128269830139 pbc="F F F"
O        0.00000000       0.00000000       0.00000000       0.00000000       0.00000000    -962.23950195
O        0.00000000       0.00000000       0.59151515       0.00000000       0.00000000     962.23950195
2
Properties=species:S:1:pos:R:3:forces:R:3 energy=61.538275309770505 pbc="F F F"
O        0.00000000       0.00000000       0.00000000       0.00000000       0.00000000    -541.90002441
O        0.00000000       0.00000000       0.65030303       0.00000000       0.00000000     541.90002441
2
Properties=species:S:1:pos:R:3:forces:R:3 energy=36.56086994936826 pbc="F F F"
O        0.00000000       0.00000000       0.00000000       0.00000000       0.00000000    -332.48016357
O        0.00000000       0.00000000       0.70909091       0.00000000       0.00000000     332.48016357
2
Properties=species:S:1:pos:R:3:forces:R:3 energy=20.37837130258749 pbc="F F F"
O        0.00000000       0.00000000       0.00000000       0.00000000       0.00000000    -225.45997620
O        0.00000000       0.00000000       0.76787879       0.00000000       0.00000000     225.45997620
2
Properties=species:S:1:pos:R:3:forces:R:3 energy=9.571234233005077 pbc="F F F"
O        0.00000000       0.00000000       0.00000000       0.00000000       0.00000000    -146.99386597
O        0.00000000       0.00000000       0.82666667       0.00000000       0.00000000     146.99386597
2
Properties=species:S:1:pos:R:3:forces:R:3 energy=2.228049410086597 pbc="F F F"
O        0.00000000       0.00000000       0.00000000       0.00000000       0.00000000    -106.37086487
O        0.00000000       0.00000000       0.88545455       0.00000000       0.00000000     106.37086487
2
Properties=species:S:1:pos:R:3:forces:R:3 energy=-2.9228782485469424 pbc="F F F"
O        0.00000000       0.00000000       0.00000000       0.00000000       0.00000000     -69.33485413
O        0.00000000       0.00000000       0.94424242       0.00000000       0.00000000      69.33485413
2
Properties=species:S:1:pos:R:3:forces:R:3 energy=-6.1238868529534916 pbc="F F F"
O        0.00000000       0.00000000       0.00000000       0.00000000       0.00000000     -41.16617203
O        0.00000000       0.00000000       1.00303030       0.00000000       0.00000000      41.16617203
2
Properties=species:S:1:pos:R:3:forces:R:3 energy=-8.007044013799849 pbc="F F F"
O        0.00000000       0.00000000       0.00000000       0.00000000       0.00000000     -23.88945580
O        0.00000000       0.00000000       1.06181818       0.00000000       0.00000000      23.88945580
2
Properties=species:S:1:pos:R:3:forces:R:3 energy=-9.048021447005427 pbc="F F F"
O        0.00000000       0.00000000       0.00000000       0.00000000       0.00000000     -12.65172863
O        0.00000000       0.00000000       1.12060606       0.00000000       0.00000000      12.65172863
2
Properties=species:S:1:pos:R:3:forces:R:3 energy=-9.565101310044906 pbc="F F F"
O        0.00000000       0.00000000       0.00000000       0.00000000       0.00000000      -4.95555544
O        0.00000000       0.00000000       1.17939394       0.00000000       0.00000000       4.95555544
2
Properties=species:S:1:pos:R:3:forces:R:3 energy=-9.696481722738628 pbc="F F F"
O        0.00000000       0.00000000       0.00000000       0.00000000       0.00000000       0.08741017
O        0.00000000       0.00000000       1.23818182       0.00000000       0.00000000      -0.08741017
2
Properties=species:S:1:pos:R:3:forces:R:3 energy=-9.60551724972131 pbc="F F F"
O        0.00000000       0.00000000       0.00000000       0.00000000       0.00000000       2.91038823
O        0.00000000       0.00000000       1.29696970       0.00000000       0.00000000      -2.91038823
2
Properties=species:S:1:pos:R:3:forces:R:3 energy=-9.378391888637479 pbc="F F F"
O        0.00000000       0.00000000       0.00000000       0.00000000       0.00000000       4.86043167
O        0.00000000       0.00000000       1.35575758       0.00000000       0.00000000      -4.86043167
2
Properties=species:S:1:pos:R:3:forces:R:3 energy=-9.031014692193834 pbc="F F F"
O        0.00000000       0.00000000       0.00000000       0.00000000       0.00000000       6.78957987
O        0.00000000       0.00000000       1.41454545       0.00000000       0.00000000      -6.78957987
2
Properties=species:S:1:pos:R:3:forces:R:3 energy=-8.60911615759279 pbc="F F F"
O        0.00000000       0.00000000       0.00000000       0.00000000       0.00000000       7.41372347
O        0.00000000       0.00000000       1.47333333       0.00000000       0.00000000      -7.41372347
2
Properties=species:S:1:pos:R:3:forces:R:3 energy=-8.159978059138817 pbc="F F F"
O        0.00000000       0.00000000       0.00000000       0.00000000       0.00000000       7.91177988
O        0.00000000       0.00000000       1.53212121       0.00000000       0.00000000      -7.91177988
2
Properties=species:S:1:pos:R:3:forces:R:3 energy=-7.676319383129014 pbc="F F F"
O        0.00000000       0.00000000       0.00000000       0.00000000       0.00000000       8.58923531
O        0.00000000       0.00000000       1.59090909       0.00000000       0.00000000      -8.58923531
2
Properties=species:S:1:pos:R:3:forces:R:3 energy=-7.151202006940273 pbc="F F F"
O        0.00000000       0.00000000       0.00000000       0.00000000       0.00000000       9.05909634
O        0.00000000       0.00000000       1.64969697       0.00000000       0.00000000      -9.05909634
2
Properties=species:S:1:pos:R:3:forces:R:3 energy=-6.628053761106981 pbc="F F F"
O        0.00000000       0.00000000       0.00000000       0.00000000       0.00000000       8.78816795
O        0.00000000       0.00000000       1.70848485       0.00000000       0.00000000      -8.78816795
2
Properties=species:S:1:pos:R:3:forces:R:3 energy=-6.120505556461269 pbc="F F F"
O        0.00000000       0.00000000       0.00000000       0.00000000       0.00000000       8.42017746
O        0.00000000       0.00000000       1.76727273       0.00000000       0.00000000      -8.42017746
2
Properties=species:S:1:pos:R:3:forces:R:3 energy=-5.638390912519079 pbc="F F F"
O        0.00000000       0.00000000       0.00000000       0.00000000       0.00000000       7.90734243
O        0.00000000       0.00000000       1.82606061       0.00000000       0.00000000      -7.90734243
2
Properties=species:S:1:pos:R:3:forces:R:3 energy=-5.2221184709552535 pbc="F F F"
O        0.00000000       0.00000000       0.00000000       0.00000000       0.00000000       6.05785227
O        0.00000000       0.00000000       1.88484848       0.00000000       0.00000000      -6.05785227
2
Properties=species:S:1:pos:R:3:forces:R:3 energy=-4.942091627267982 pbc="F F F"
O        0.00000000       0.00000000       0.00000000       0.00000000       0.00000000       3.46321821
O        0.00000000       0.00000000       1.94363636       0.00000000       0.00000000      -3.46321821
2
Properties=species:S:1:pos:R:3:forces:R:3 energy=-4.799866995860088 pbc="F F F"
O        0.00000000       0.00000000       0.00000000       0.00000000       0.00000000       1.56134093
O        0.00000000       0.00000000       2.00242424       0.00000000       0.00000000      -1.56134093
2
Properties=species:S:1:pos:R:3:forces:R:3 energy=-4.734490588593515 pbc="F F F"
O        0.00000000       0.00000000       0.00000000       0.00000000       0.00000000       0.84694827
O        0.00000000       0.00000000       2.06121212       0.00000000       0.00000000      -0.84694827
2
Properties=species:S:1:pos:R:3:forces:R:3 energy=-4.690695575639864 pbc="F F F"
O        0.00000000       0.00000000       0.00000000       0.00000000       0.00000000       0.68033189
O        0.00000000       0.00000000       2.12000000       0.00000000       0.00000000      -0.68033189
2
Properties=species:S:1:pos:R:3:forces:R:3 energy=-4.650479189382935 pbc="F F F"
O        0.00000000       0.00000000       0.00000000       0.00000000       0.00000000       0.69173414
O        0.00000000       0.00000000       2.17878788       0.00000000       0.00000000      -0.69173414
2
Properties=species:S:1:pos:R:3:forces:R:3 energy=-4.610108708950537 pbc="F F F"
O        0.00000000       0.00000000       0.00000000       0.00000000       0.00000000       0.68536001
O        0.00000000       0.00000000       2.23757576       0.00000000       0.00000000      -0.68536001
2
Properties=species:S:1:pos:R:3:forces:R:3 energy=-4.569604761965462 pbc="F F F"
O        0.00000000       0.00000000       0.00000000       0.00000000       0.00000000       0.68938994
O        0.00000000       0.00000000       2.29636364       0.00000000       0.00000000      -0.68938994
2
Properties=species:S:1:pos:R:3:forces:R:3 energy=-4.529504743192974 pbc="F F F"
O        0.00000000       0.00000000       0.00000000       0.00000000       0.00000000       0.67375386
O        0.00000000       0.00000000       2.35515152       0.00000000       0.00000000      -0.67375386
2
Properties=species:S:1:pos:R:3:forces:R:3 energy=-4.490392758432908 pbc="F F F"
O        0.00000000       0.00000000       0.00000000       0.00000000       0.00000000       0.65524101
O        0.00000000       0.00000000       2.41393939       0.00000000       0.00000000      -0.65524101
2
Properties=species:S:1:pos:R:3:forces:R:3 energy=-4.452666047172062 pbc="F F F"
O        0.00000000       0.00000000       0.00000000       0.00000000       0.00000000       0.62811422
O        0.00000000       0.00000000       2.47272727       0.00000000       0.00000000      -0.62811422
2
Properties=species:S:1:pos:R:3:forces:R:3 energy=-4.416491157123191 pbc="F F F"
O        0.00000000       0.00000000       0.00000000       0.00000000       0.00000000       0.60141438
O        0.00000000       0.00000000       2.53151515       0.00000000       0.00000000      -0.60141438
2
Properties=species:S:1:pos:R:3:forces:R:3 energy=-4.382494453531334 pbc="F F F"
O        0.00000000       0.00000000       0.00000000       0.00000000       0.00000000       0.54765266
O        0.00000000       0.00000000       2.59030303       0.00000000       0.00000000      -0.54765266
2
Properties=species:S:1:pos:R:3:forces:R:3 energy=-4.352979032152169 pbc="F F F"
O        0.00000000       0.00000000       0.00000000       0.00000000       0.00000000       0.45179614
O        0.00000000       0.00000000       2.64909091       0.00000000       0.00000000      -0.45179614
2
Properties=species:S:1:pos:R:3:forces:R:3 energy=-4.329369872483737 pbc="F F F"
O        0.00000000       0.00000000       0.00000000       0.00000000       0.00000000       0.35590529
O        0.00000000       0.00000000       2.70787879       0.00000000       0.00000000      -0.35590529
2
Properties=species:S:1:pos:R:3:forces:R:3 energy=-4.3103322525953685 pbc="F F F"
O        0.00000000       0.00000000       0.00000000       0.00000000       0.00000000       0.29876310
O        0.00000000       0.00000000       2.76666667       0.00000000       0.00000000      -0.29876310
2
Properties=species:S:1:pos:R:3:forces:R:3 energy=-4.2935980473229405 pbc="F F F"
O        0.00000000       0.00000000       0.00000000       0.00000000       0.00000000       0.27429834
O        0.00000000       0.00000000       2.82545455       0.00000000       0.00000000      -0.27429834
2
Properties=species:S:1:pos:R:3:forces:R:3 energy=-4.277871183412274 pbc="F F F"
O        0.00000000       0.00000000       0.00000000       0.00000000       0.00000000       0.26046395
O        0.00000000       0.00000000       2.88424242       0.00000000       0.00000000      -0.26046395
2
Properties=species:S:1:pos:R:3:forces:R:3 energy=-4.2631118221901145 pbc="F F F"
O        0.00000000       0.00000000       0.00000000       0.00000000       0.00000000       0.24025750
O        0.00000000       0.00000000       2.94303030       0.00000000       0.00000000      -0.24025750
2
Properties=species:S:1:pos:R:3:forces:R:3 energy=-4.24973717019156 pbc="F F F"
O        0.00000000       0.00000000       0.00000000       0.00000000       0.00000000       0.21481247
O        0.00000000       0.00000000       3.00181818       0.00000000       0.00000000      -0.21481247
2
Properties=species:S:1:pos:R:3:forces:R:3 energy=-4.237793649463688 pbc="F F F"
O        0.00000000       0.00000000       0.00000000       0.00000000       0.00000000       0.19223446
O        0.00000000       0.00000000       3.06060606       0.00000000       0.00000000      -0.19223446
2
Properties=species:S:1:pos:R:3:forces:R:3 energy=-4.227071303241504 pbc="F F F"
O        0.00000000       0.00000000       0.00000000       0.00000000       0.00000000       0.17260756
O        0.00000000       0.00000000       3.11939394       0.00000000       0.00000000      -0.17260756
2
Properties=species:S:1:pos:R:3:forces:R:3 energy=-4.217498558906202 pbc="F F F"
O        0.00000000       0.00000000       0.00000000       0.00000000       0.00000000       0.15300882
O        0.00000000       0.00000000       3.17818182       0.00000000       0.00000000      -0.15300882
2
Properties=species:S:1:pos:R:3:forces:R:3 energy=-4.209049676435004 pbc="F F F"
O        0.00000000       0.00000000       0.00000000       0.00000000       0.00000000       0.13490880
O        0.00000000       0.00000000       3.23696970       0.00000000       0.00000000      -0.13490880
2
Properties=species:S:1:pos:R:3:forces:R:3 energy=-4.201550120832999 pbc="F F F"
O        0.00000000       0.00000000       0.00000000       0.00000000       0.00000000       0.12101930
O        0.00000000       0.00000000       3.29575758       0.00000000       0.00000000      -0.12101930
2
Properties=species:S:1:pos:R:3:forces:R:3 energy=-4.194733739826522 pbc="F F F"
O        0.00000000       0.00000000       0.00000000       0.00000000       0.00000000       0.11168738
O        0.00000000       0.00000000       3.35454545       0.00000000       0.00000000      -0.11168738
2
Properties=species:S:1:pos:R:3:forces:R:3 energy=-4.188361915735931 pbc="F F F"
O        0.00000000       0.00000000       0.00000000       0.00000000       0.00000000       0.10547728
O        0.00000000       0.00000000       3.41333333       0.00000000       0.00000000      -0.10547728
2
Properties=species:S:1:pos:R:3:forces:R:3 energy=-4.182299819823146 pbc="F F F"
O        0.00000000       0.00000000       0.00000000       0.00000000       0.00000000       0.10102167
O        0.00000000       0.00000000       3.47212121       0.00000000       0.00000000      -0.10102167
2
Properties=species:S:1:pos:R:3:forces:R:3 energy=-4.176462014445762 pbc="F F F"
O        0.00000000       0.00000000       0.00000000       0.00000000       0.00000000       0.09771150
O        0.00000000       0.00000000       3.53090909       0.00000000       0.00000000      -0.09771150
2
Properties=species:S:1:pos:R:3:forces:R:3 energy=-4.170797183576595 pbc="F F F"
O        0.00000000       0.00000000       0.00000000       0.00000000       0.00000000       0.09501597
O        0.00000000       0.00000000       3.58969697       0.00000000       0.00000000      -0.09501597
2
Properties=species:S:1:pos:R:3:forces:R:3 energy=-4.16529860738205 pbc="F F F"
O        0.00000000       0.00000000       0.00000000       0.00000000       0.00000000       0.09179452
O        0.00000000       0.00000000       3.64848485       0.00000000       0.00000000      -0.09179452
2
Properties=species:S:1:pos:R:3:forces:R:3 energy=-4.160046137157293 pbc="F F F"
O        0.00000000       0.00000000       0.00000000       0.00000000       0.00000000       0.08653606
O        0.00000000       0.00000000       3.70727273       0.00000000       0.00000000      -0.08653606
2
Properties=species:S:1:pos:R:3:forces:R:3 energy=-4.155186162819912 pbc="F F F"
O        0.00000000       0.00000000       0.00000000       0.00000000       0.00000000       0.07817432
O        0.00000000       0.00000000       3.76606061       0.00000000       0.00000000      -0.07817432
2
Properties=species:S:1:pos:R:3:forces:R:3 energy=-4.150912572289741 pbc="F F F"
O        0.00000000       0.00000000       0.00000000       0.00000000       0.00000000       0.06668709
O        0.00000000       0.00000000       3.82484848       0.00000000       0.00000000      -0.06668709
2
Properties=species:S:1:pos:R:3:forces:R:3 energy=-4.147385701051302 pbc="F F F"
O        0.00000000       0.00000000       0.00000000       0.00000000       0.00000000       0.05307762
O        0.00000000       0.00000000       3.88363636       0.00000000       0.00000000      -0.05307762
2
Properties=species:S:1:pos:R:3:forces:R:3 energy=-4.144684676354411 pbc="F F F"
O        0.00000000       0.00000000       0.00000000       0.00000000       0.00000000       0.03885970
O        0.00000000       0.00000000       3.94242424       0.00000000       0.00000000      -0.03885970
2
Properties=species:S:1:pos:R:3:forces:R:3 energy=-4.142800762282803 pbc="F F F"
O        0.00000000       0.00000000       0.00000000       0.00000000       0.00000000       0.02544047
O        0.00000000       0.00000000       4.00121212       0.00000000       0.00000000      -0.02544047
2
Properties=species:S:1:pos:R:3:forces:R:3 energy=-4.141659323169782 pbc="F F F"
O        0.00000000       0.00000000       0.00000000       0.00000000       0.00000000       0.01374518
O        0.00000000       0.00000000       4.06000000       0.00000000       0.00000000      -0.01374518
2
Properties=species:S:1:pos:R:3:forces:R:3 energy=-4.14114367990932 pbc="F F F"
O        0.00000000       0.00000000       0.00000000       0.00000000       0.00000000       0.00414924
O        0.00000000       0.00000000       4.11878788       0.00000000       0.00000000      -0.00414924
2
Properties=species:S:1:pos:R:3:forces:R:3 energy=-4.141130422832255 pbc="F F F"
O        0.00000000       0.00000000       0.00000000       0.00000000       0.00000000      -0.00341267
O        0.00000000       0.00000000       4.17757576       0.00000000       0.00000000       0.00341267
2
Properties=species:S:1:pos:R:3:forces:R:3 energy=-4.141515172495179 pbc="F F F"
O        0.00000000       0.00000000       0.00000000       0.00000000       0.00000000      -0.00928402
O        0.00000000       0.00000000       4.23636364       0.00000000       0.00000000       0.00928402
2
Properties=species:S:1:pos:R:3:forces:R:3 energy=-4.142199246355999 pbc="F F F"
O        0.00000000       0.00000000       0.00000000       0.00000000       0.00000000      -0.01393454
O        0.00000000       0.00000000       4.29515152       0.00000000       0.00000000       0.01393454
2
Properties=species:S:1:pos:R:3:forces:R:3 energy=-4.143136402278675 pbc="F F F"
O        0.00000000       0.00000000       0.00000000       0.00000000       0.00000000      -0.01782211
O        0.00000000       0.00000000       4.35393939       0.00000000       0.00000000       0.01782211
2
Properties=species:S:1:pos:R:3:forces:R:3 energy=-4.144287065234869 pbc="F F F"
O        0.00000000       0.00000000       0.00000000       0.00000000       0.00000000      -0.02128096
O        0.00000000       0.00000000       4.41272727       0.00000000       0.00000000       0.02128096
2
Properties=species:S:1:pos:R:3:forces:R:3 energy=-4.145633602130102 pbc="F F F"
O        0.00000000       0.00000000       0.00000000       0.00000000       0.00000000      -0.02443789
O        0.00000000       0.00000000       4.47151515       0.00000000       0.00000000       0.02443789
2
Properties=species:S:1:pos:R:3:forces:R:3 energy=-4.1471545741811235 pbc="F F F"
O        0.00000000       0.00000000       0.00000000       0.00000000       0.00000000      -0.02719822
O        0.00000000       0.00000000       4.53030303       0.00000000       0.00000000       0.02719822
2
Properties=species:S:1:pos:R:3:forces:R:3 energy=-4.148818066046426 pbc="F F F"
O        0.00000000       0.00000000       0.00000000       0.00000000       0.00000000      -0.02930030
O        0.00000000       0.00000000       4.58909091       0.00000000       0.00000000       0.02930030
2
Properties=species:S:1:pos:R:3:forces:R:3 energy=-4.150581691468922 pbc="F F F"
O        0.00000000       0.00000000       0.00000000       0.00000000       0.00000000      -0.03043055
O        0.00000000       0.00000000       4.64787879       0.00000000       0.00000000       0.03043055
2
Properties=species:S:1:pos:R:3:forces:R:3 energy=-4.152372565125366 pbc="F F F"
O        0.00000000       0.00000000       0.00000000       0.00000000       0.00000000      -0.03035505
O        0.00000000       0.00000000       4.70666667       0.00000000       0.00000000       0.03035505
2
Properties=species:S:1:pos:R:3:forces:R:3 energy=-4.154121638168552 pbc="F F F"
O        0.00000000       0.00000000       0.00000000       0.00000000       0.00000000      -0.02902056
O        0.00000000       0.00000000       4.76545455       0.00000000       0.00000000       0.02902056
2
Properties=species:S:1:pos:R:3:forces:R:3 energy=-4.15576560626891 pbc="F F F"
O        0.00000000       0.00000000       0.00000000       0.00000000       0.00000000      -0.02658807
O        0.00000000       0.00000000       4.82424242       0.00000000       0.00000000       0.02658807
2
Properties=species:S:1:pos:R:3:forces:R:3 energy=-4.157234512640352 pbc="F F F"
O        0.00000000       0.00000000       0.00000000       0.00000000       0.00000000      -0.02339077
O        0.00000000       0.00000000       4.88303030       0.00000000       0.00000000       0.02339077
2
Properties=species:S:1:pos:R:3:forces:R:3 energy=-4.158503243285531 pbc="F F F"
O        0.00000000       0.00000000       0.00000000       0.00000000       0.00000000      -0.01984265
O        0.00000000       0.00000000       4.94181818       0.00000000       0.00000000       0.01984265
2
Properties=species:S:1:pos:R:3:forces:R:3 energy=-4.159571501963577 pbc="F F F"
O        0.00000000       0.00000000       0.00000000       0.00000000       0.00000000      -0.01633273
O        0.00000000       0.00000000       5.00060606       0.00000000       0.00000000       0.01633273
2
Properties=species:S:1:pos:R:3:forces:R:3 energy=-4.160432338541683 pbc="F F F"
O        0.00000000       0.00000000       0.00000000       0.00000000       0.00000000      -0.01314670
O        0.00000000       0.00000000       5.05939394       0.00000000       0.00000000       0.01314670
2
Properties=species:S:1:pos:R:3:forces:R:3 energy=-4.161120783019426 pbc="F F F"
O        0.00000000       0.00000000       0.00000000       0.00000000       0.00000000      -0.01043307
O        0.00000000       0.00000000       5.11818182       0.00000000       0.00000000       0.01043307
2
Properties=species:S:1:pos:R:3:forces:R:3 energy=-4.161667116031733 pbc="F F F"
O        0.00000000       0.00000000       0.00000000       0.00000000       0.00000000      -0.00821566
O        0.00000000       0.00000000       5.17696970       0.00000000       0.00000000       0.00821566
2
Properties=species:S:1:pos:R:3:forces:R:3 energy=-4.162097822374708 pbc="F F F"
O        0.00000000       0.00000000       0.00000000       0.00000000       0.00000000      -0.00643368
O        0.00000000       0.00000000       5.23575758       0.00000000       0.00000000       0.00643368
2
Properties=species:S:1:pos:R:3:forces:R:3 energy=-4.162431772596073 pbc="F F F"
O        0.00000000       0.00000000       0.00000000       0.00000000       0.00000000      -0.00499144
O        0.00000000       0.00000000       5.29454545       0.00000000       0.00000000       0.00499144
2
Properties=species:S:1:pos:R:3:forces:R:3 energy=-4.162689761272746 pbc="F F F"
O        0.00000000       0.00000000       0.00000000       0.00000000       0.00000000      -0.00379729
O        0.00000000       0.00000000       5.35333333       0.00000000       0.00000000       0.00379729
2
Properties=species:S:1:pos:R:3:forces:R:3 energy=-4.1628830606916685 pbc="F F F"
O        0.00000000       0.00000000       0.00000000       0.00000000       0.00000000      -0.00278698
O        0.00000000       0.00000000       5.41212121       0.00000000       0.00000000       0.00278698
2
Properties=species:S:1:pos:R:3:forces:R:3 energy=-4.163022002186254 pbc="F F F"
O        0.00000000       0.00000000       0.00000000       0.00000000       0.00000000      -0.00192875
O        0.00000000       0.00000000       5.47090909       0.00000000       0.00000000       0.00192875
2
Properties=species:S:1:pos:R:3:forces:R:3 energy=-4.16311216190934 pbc="F F F"
O        0.00000000       0.00000000       0.00000000       0.00000000       0.00000000      -0.00121578
O        0.00000000       0.00000000       5.52969697       0.00000000       0.00000000       0.00121578
2
Properties=species:S:1:pos:R:3:forces:R:3 energy=-4.163163895942951 pbc="F F F"
O        0.00000000       0.00000000       0.00000000       0.00000000       0.00000000      -0.00065282
O        0.00000000       0.00000000       5.58848485       0.00000000       0.00000000       0.00065282
2
Properties=species:S:1:pos:R:3:forces:R:3 energy=-4.163190431910217 pbc="F F F"
O        0.00000000       0.00000000       0.00000000       0.00000000       0.00000000      -0.00024255
O        0.00000000       0.00000000       5.64727273       0.00000000       0.00000000       0.00024255
2
Properties=species:S:1:pos:R:3:forces:R:3 energy=-4.163195470244069 pbc="F F F"
O        0.00000000       0.00000000       0.00000000       0.00000000       0.00000000       0.00002402
O        0.00000000       0.00000000       5.70606061       0.00000000       0.00000000      -0.00002402
2
Properties=species:S:1:pos:R:3:forces:R:3 energy=-4.163193211521123 pbc="F F F"
O        0.00000000       0.00000000       0.00000000       0.00000000       0.00000000       0.00017052
O        0.00000000       0.00000000       5.76484848       0.00000000       0.00000000      -0.00017052
2
Properties=species:S:1:pos:R:3:forces:R:3 energy=-4.163177837274893 pbc="F F F"
O        0.00000000       0.00000000       0.00000000       0.00000000       0.00000000       0.00023120
O        0.00000000       0.00000000       5.82363636       0.00000000       0.00000000      -0.00023120
2
Properties=species:S:1:pos:R:3:forces:R:3 energy=-4.1631635634756305 pbc="F F F"
O        0.00000000       0.00000000       0.00000000       0.00000000       0.00000000       0.00024244
O        0.00000000       0.00000000       5.88242424       0.00000000       0.00000000      -0.00024244
2
Properties=species:S:1:pos:R:3:forces:R:3 energy=-4.163152216049039 pbc="F F F"
O        0.00000000       0.00000000       0.00000000       0.00000000       0.00000000       0.00023278
O        0.00000000       0.00000000       5.94121212       0.00000000       0.00000000      -0.00023278
2
Properties=species:S:1:pos:R:3:forces:R:3 energy=-4.163138951214521 pbc="F F F"
O        0.00000000       0.00000000       0.00000000       0.00000000       0.00000000       0.00021801
O        0.00000000       0.00000000       6.00000000       0.00000000       0.00000000      -0.00021801
