2
Properties=species:S:1:pos:R:3:forces:R:3 energy=-2406088.7996902363 pbc="F F F"
Si       0.00000000       0.00000000       0.00000000       0.00000000       0.00000000 21604620.00000000
Si       0.00000000       0.00000000       0.18000000       0.00000000       0.00000000 -21604620.00000000
2
Properties=species:S:1:pos:R:3:forces:R:3 energy=-1296599.7996902366 pbc="F F F"
Si       0.00000000       0.00000000       0.00000000       0.00000000       0.00000000 15663962.00000000
Si       0.00000000       0.00000000       0.23878788       0.00000000       0.00000000 -15663962.00000000
2
Properties=species:S:1:pos:R:3:forces:R:3 energy=-579095.6746902365 pbc="F F F"
Si       0.00000000       0.00000000       0.00000000       0.00000000       0.00000000 8899550.00000000
Si       0.00000000       0.00000000       0.29757576       0.00000000       0.00000000 -8899550.00000000
2
Properties=species:S:1:pos:R:3:forces:R:3 energy=-212635.15906523014 pbc="F F F"
Si       0.00000000       0.00000000       0.00000000       0.00000000       0.00000000 4003017.75000000
Si       0.00000000       0.00000000       0.35636364       0.00000000       0.00000000 -4003017.75000000
2
Properties=species:S:1:pos:R:3:forces:R:3 energy=-63864.04969021746 pbc="F F F"
Si       0.00000000       0.00000000       0.00000000       0.00000000       0.00000000 1375788.62500000
Si       0.00000000       0.00000000       0.41515152       0.00000000       0.00000000 -1375788.62500000
2
Properties=species:S:1:pos:R:3:forces:R:3 energy=-17823.64148706078 pbc="F F F"
Si       0.00000000       0.00000000       0.00000000       0.00000000       0.00000000  387631.37500000
Si       0.00000000       0.00000000       0.47393939       0.00000000       0.00000000 -387631.37500000
2
Properties=species:S:1:pos:R:3:forces:R:3 energy=-5266.518928419513 pbc="F F F"
Si       0.00000000       0.00000000       0.00000000       0.00000000       0.00000000  105415.25781250
Si       0.00000000       0.00000000       0.53272727       0.00000000       0.00000000 -105415.25781250
2
Properties=species:S:1:pos:R:3:forces:R:3 energy=-1905.7649000105012 pbc="F F F"
Si       0.00000000       0.00000000       0.00000000       0.00000000       0.00000000   29843.17968750
Si       0.00000000       0.00000000       0.59151515       0.00000000       0.00000000  -29843.17968750
2
Properties=species:S:1:pos:R:3:forces:R:3 energy=-80.60169948002779 pbc="F F F"
Si       0.00000000       0.00000000       0.00000000       0.00000000       0.00000000   22432.23632812
Si       0.00000000       0.00000000       0.65030303       0.00000000       0.00000000  -22432.23632812
2
Properties=species:S:1:pos:R:3:forces:R:3 energy=255.7992788364343 pbc="F F F"
Si       0.00000000       0.00000000       0.00000000       0.00000000       0.00000000   -1500.97973633
Si       0.00000000       0.00000000       0.70909091       0.00000000       0.00000000    1500.97973633
2
Properties=species:S:1:pos:R:3:forces:R:3 energy=144.0007409863904 pbc="F F F"
Si       0.00000000       0.00000000       0.00000000       0.00000000       0.00000000   -1555.61120605
Si       0.00000000       0.00000000       0.76787879       0.00000000       0.00000000    1555.61120605
2
Properties=species:S:1:pos:R:3:forces:R:3 energy=80.84132531035058 pbc="F F F"
Si       0.00000000       0.00000000       0.00000000       0.00000000       0.00000000    -624.55963135
Si       0.00000000       0.00000000       0.82666667       0.00000000       0.00000000     624.55963135
2
Properties=species:S:1:pos:R:3:forces:R:3 energy=61.29648048006975 pbc="F F F"
Si       0.00000000       0.00000000       0.00000000       0.00000000       0.00000000     -98.48422241
Si       0.00000000       0.00000000       0.88545455       0.00000000       0.00000000      98.48422241
2
Properties=species:S:1:pos:R:3:forces:R:3 energy=61.48447743926341 pbc="F F F"
Si       0.00000000       0.00000000       0.00000000       0.00000000       0.00000000      26.47068787
Si       0.00000000       0.00000000       0.94424242       0.00000000       0.00000000     -26.47068787
2
Properties=species:S:1:pos:R:3:forces:R:3 energy=57.07088940625125 pbc="F F F"
Si       0.00000000       0.00000000       0.00000000       0.00000000       0.00000000    -155.51591492
Si       0.00000000       0.00000000       1.00303030       0.00000000       0.00000000     155.51591492
2
Properties=species:S:1:pos:R:3:forces:R:3 energy=45.5435323456728 pbc="F F F"
Si       0.00000000       0.00000000       0.00000000       0.00000000       0.00000000    -199.71678162
Si       0.00000000       0.00000000       1.06181818       0.00000000       0.00000000     199.71678162
2
Properties=species:S:1:pos:R:3:forces:R:3 energy=35.692559893994584 pbc="F F F"
Si       0.00000000       0.00000000       0.00000000       0.00000000       0.00000000    -136.94729614
Si       0.00000000       0.00000000       1.12060606       0.00000000       0.00000000     136.94729614
2
Properties=species:S:1:pos:R:3:forces:R:3 energy=28.778641924195288 pbc="F F F"
Si       0.00000000       0.00000000       0.00000000       0.00000000       0.00000000    -106.48564148
Si       0.00000000       0.00000000       1.17939394       0.00000000       0.00000000     106.48564148
2
Properties=species:S:1:pos:R:3:forces:R:3 energy=22.954309299678084 pbc="F F F"
Si       0.00000000       0.00000000       0.00000000       0.00000000       0.00000000     -96.54058838
Si       0.00000000       0.00000000       1.23818182       0.00000000       0.00000000      96.54058838
2
Properties=species:S:1:pos:R:3:forces:R:3 energy=17.337894148202388 pbc="F F F"
Si       0.00000000       0.00000000       0.00000000       0.00000000       0.00000000     -93.51377106
Si       0.00000000       0.00000000       1.29696970       0.00000000       0.00000000      93.51377106
2
Properties=species:S:1:pos:R:3:forces:R:3 energy=12.50294315497566 pbc="F F F"
Si       0.00000000       0.00000000       0.00000000       0.00000000       0.00000000     -72.14150238
Si       0.00000000       0.00000000       1.35575758       0.00000000       0.00000000      72.14150238
2
Properties=species:S:1:pos:R:3:forces:R:3 energy=8.676778223522108 pbc="F F F"
Si       0.00000000       0.00000000       0.00000000       0.00000000       0.00000000     -57.64999008
Si       0.00000000       0.00000000       1.41454545       0.00000000       0.00000000      57.64999008
2
Properties=species:S:1:pos:R:3:forces:R:3 energy=5.6548490098842965 pbc="F F F"
Si       0.00000000       0.00000000       0.00000000       0.00000000       0.00000000     -46.27934647
Si       0.00000000       0.00000000       1.47333333       0.00000000       0.00000000      46.27934647
2
Properties=species:S:1:pos:R:3:forces:R:3 energy=3.1645500013726107 pbc="F F F"
Si       0.00000000       0.00000000       0.00000000       0.00000000       0.00000000     -38.64144897
Si       0.00000000       0.00000000       1.53212121       0.00000000       0.00000000      38.64144897
2
Properties=species:S:1:pos:R:3:forces:R:3 energy=1.1241708292202863 pbc="F F F"
Si       0.00000000       0.00000000       0.00000000       0.00000000       0.00000000     -30.74180603
Si       0.00000000       0.00000000       1.59090909       0.00000000       0.00000000      30.74180603
2
Properties=species:S:1:pos:R:3:forces:R:3 energy=-0.4779132674633702 pbc="F F F"
Si       0.00000000       0.00000000       0.00000000       0.00000000       0.00000000     -24.09603310
Si       0.00000000       0.00000000       1.64969697       0.00000000       0.00000000      24.09603310
2
Properties=species:S:1:pos:R:3:forces:R:3 energy=-1.7473058838876576 pbc="F F F"
Si       0.00000000       0.00000000       0.00000000       0.00000000       0.00000000     -19.31455994
Si       0.00000000       0.00000000       1.70848485       0.00000000       0.00000000      19.31455994
2
Properties=species:S:1:pos:R:3:forces:R:3 energy=-2.778279950520031 pbc="F F F"
Si       0.00000000       0.00000000       0.00000000       0.00000000       0.00000000     -16.09599304
Si       0.00000000       0.00000000       1.76727273       0.00000000       0.00000000      16.09599304
2
Properties=species:S:1:pos:R:3:forces:R:3 energy=-3.639728250574138 pbc="F F F"
Si       0.00000000       0.00000000       0.00000000       0.00000000       0.00000000     -12.89243412
Si       0.00000000       0.00000000       1.82606061       0.00000000       0.00000000      12.89243412
2
Properties=species:S:1:pos:R:3:forces:R:3 energy=-4.285928114223685 pbc="F F F"
Si       0.00000000       0.00000000       0.00000000       0.00000000       0.00000000      -9.26185989
Si       0.00000000       0.00000000       1.88484848       0.00000000       0.00000000       9.26185989
2
Properties=species:S:1:pos:R:3:forces:R:3 energy=-4.746844321271331 pbc="F F F"
Si       0.00000000       0.00000000       0.00000000       0.00000000       0.00000000      -6.49485159
Si       0.00000000       0.00000000       1.94363636       0.00000000       0.00000000       6.49485159
2
Properties=species:S:1:pos:R:3:forces:R:3 energy=-5.0624658489723675 pbc="F F F"
Si       0.00000000       0.00000000       0.00000000       0.00000000       0.00000000      -4.36484385
Si       0.00000000       0.00000000       2.00242424       0.00000000       0.00000000       4.36484385
2
Properties=species:S:1:pos:R:3:forces:R:3 energy=-5.268164208457421 pbc="F F F"
Si       0.00000000       0.00000000       0.00000000       0.00000000       0.00000000      -2.68556070
Si       0.00000000       0.00000000       2.06121212       0.00000000       0.00000000       2.68556070
2
Properties=species:S:1:pos:R:3:forces:R:3 energy=-5.3856966427904025 pbc="F F F"
Si       0.00000000       0.00000000       0.00000000       0.00000000       0.00000000      -1.35859728
Si       0.00000000       0.00000000       2.12000000       0.00000000       0.00000000       1.35859728
2
Properties=species:S:1:pos:R:3:forces:R:3 energy=-5.435217819710399 pbc="F F F"
Si       0.00000000       0.00000000       0.00000000       0.00000000       0.00000000      -0.42488638
Si       0.00000000       0.00000000       2.17878788       0.00000000       0.00000000       0.42488638
2
Properties=species:S:1:pos:R:3:forces:R:3 energy=-5.443518810952611 pbc="F F F"
Si       0.00000000       0.00000000       0.00000000       0.00000000       0.00000000       0.12851542
Si       0.00000000       0.00000000       2.23757576       0.00000000       0.00000000      -0.12851542
2
Properties=species:S:1:pos:R:3:forces:R:3 energy=-5.420656530016367 pbc="F F F"
Si       0.00000000       0.00000000       0.00000000       0.00000000       0.00000000       0.63999164
Si       0.00000000       0.00000000       2.29636364       0.00000000       0.00000000      -0.63999164
2
Properties=species:S:1:pos:R:3:forces:R:3 energy=-5.370827206610898 pbc="F F F"
Si       0.00000000       0.00000000       0.00000000       0.00000000       0.00000000       1.02206528
Si       0.00000000       0.00000000       2.35515152       0.00000000       0.00000000      -1.02206528
2
Properties=species:S:1:pos:R:3:forces:R:3 energy=-5.302535780030875 pbc="F F F"
Si       0.00000000       0.00000000       0.00000000       0.00000000       0.00000000       1.30868697
Si       0.00000000       0.00000000       2.41393939       0.00000000       0.00000000      -1.30868697
2
Properties=species:S:1:pos:R:3:forces:R:3 energy=-5.215549012815583 pbc="F F F"
Si       0.00000000       0.00000000       0.00000000       0.00000000       0.00000000       1.65342355
Si       0.00000000       0.00000000       2.47272727       0.00000000       0.00000000      -1.65342355
2
Properties=species:S:1:pos:R:3:forces:R:3 energy=-5.108855289146628 pbc="F F F"
Si       0.00000000       0.00000000       0.00000000       0.00000000       0.00000000       1.96600032
Si       0.00000000       0.00000000       2.53151515       0.00000000       0.00000000      -1.96600032
2
Properties=species:S:1:pos:R:3:forces:R:3 energy=-4.985818385665473 pbc="F F F"
Si       0.00000000       0.00000000       0.00000000       0.00000000       0.00000000       2.20779800
Si       0.00000000       0.00000000       2.59030303       0.00000000       0.00000000      -2.20779800
2
Properties=species:S:1:pos:R:3:forces:R:3 energy=-4.850418228591362 pbc="F F F"
Si       0.00000000       0.00000000       0.00000000       0.00000000       0.00000000       2.39005446
Si       0.00000000       0.00000000       2.64909091       0.00000000       0.00000000      -2.39005446
2
Properties=species:S:1:pos:R:3:forces:R:3 energy=-4.705994195432499 pbc="F F F"
Si       0.00000000       0.00000000       0.00000000       0.00000000       0.00000000       2.51094627
Si       0.00000000       0.00000000       2.70787879       0.00000000       0.00000000      -2.51094627
2
Properties=species:S:1:pos:R:3:forces:R:3 energy=-4.556769244339751 pbc="F F F"
Si       0.00000000       0.00000000       0.00000000       0.00000000       0.00000000       2.55285764
Si       0.00000000       0.00000000       2.76666667       0.00000000       0.00000000      -2.55285764
2
Properties=species:S:1:pos:R:3:forces:R:3 energy=-4.407157408724116 pbc="F F F"
Si       0.00000000       0.00000000       0.00000000       0.00000000       0.00000000       2.52747178
Si       0.00000000       0.00000000       2.82545455       0.00000000       0.00000000      -2.52747178
2
Properties=species:S:1:pos:R:3:forces:R:3 energy=-4.260598263628245 pbc="F F F"
Si       0.00000000       0.00000000       0.00000000       0.00000000       0.00000000       2.45086408
Si       0.00000000       0.00000000       2.88424242       0.00000000       0.00000000      -2.45086408
2
Properties=species:S:1:pos:R:3:forces:R:3 energy=-4.119776797446544 pbc="F F F"
Si       0.00000000       0.00000000       0.00000000       0.00000000       0.00000000       2.33469343
Si       0.00000000       0.00000000       2.94303030       0.00000000       0.00000000      -2.33469343
2
Properties=species:S:1:pos:R:3:forces:R:3 energy=-3.9865163666514682 pbc="F F F"
Si       0.00000000       0.00000000       0.00000000       0.00000000       0.00000000       2.19715118
Si       0.00000000       0.00000000       3.00181818       0.00000000       0.00000000      -2.19715118
2
Properties=species:S:1:pos:R:3:forces:R:3 energy=-3.8614765375525066 pbc="F F F"
Si       0.00000000       0.00000000       0.00000000       0.00000000       0.00000000       2.05736995
Si       0.00000000       0.00000000       3.06060606       0.00000000       0.00000000      -2.05736995
2
Properties=species:S:1:pos:R:3:forces:R:3 energy=-3.7445462729544756 pbc="F F F"
Si       0.00000000       0.00000000       0.00000000       0.00000000       0.00000000       1.92105043
Si       0.00000000       0.00000000       3.11939394       0.00000000       0.00000000      -1.92105043
2
Properties=species:S:1:pos:R:3:forces:R:3 energy=-3.6355994492434984 pbc="F F F"
Si       0.00000000       0.00000000       0.00000000       0.00000000       0.00000000       1.78523386
Si       0.00000000       0.00000000       3.17818182       0.00000000       0.00000000      -1.78523386
2
Properties=species:S:1:pos:R:3:forces:R:3 energy=-3.5346526263551157 pbc="F F F"
Si       0.00000000       0.00000000       0.00000000       0.00000000       0.00000000       1.64919519
Si       0.00000000       0.00000000       3.23696970       0.00000000       0.00000000      -1.64919519
2
Properties=species:S:1:pos:R:3:forces:R:3 energy=-3.4416629087220967 pbc="F F F"
Si       0.00000000       0.00000000       0.00000000       0.00000000       0.00000000       1.51481414
Si       0.00000000       0.00000000       3.29575758       0.00000000       0.00000000      -1.51481414
2
Properties=species:S:1:pos:R:3:forces:R:3 energy=-3.3564709616028643 pbc="F F F"
Si       0.00000000       0.00000000       0.00000000       0.00000000       0.00000000       1.38417757
Si       0.00000000       0.00000000       3.35454545       0.00000000       0.00000000      -1.38417757
2
Properties=species:S:1:pos:R:3:forces:R:3 energy=-3.278825717435156 pbc="F F F"
Si       0.00000000       0.00000000       0.00000000       0.00000000       0.00000000       1.25822985
Si       0.00000000       0.00000000       3.41333333       0.00000000       0.00000000      -1.25822985
2
Properties=species:S:1:pos:R:3:forces:R:3 energy=-3.2084346858362505 pbc="F F F"
Si       0.00000000       0.00000000       0.00000000       0.00000000       0.00000000       1.13738525
Si       0.00000000       0.00000000       3.47212121       0.00000000       0.00000000      -1.13738525
2
Properties=species:S:1:pos:R:3:forces:R:3 energy=-3.144977254198395 pbc="F F F"
Si       0.00000000       0.00000000       0.00000000       0.00000000       0.00000000       1.02253067
Si       0.00000000       0.00000000       3.53090909       0.00000000       0.00000000      -1.02253067
2
Properties=species:S:1:pos:R:3:forces:R:3 energy=-3.0880765558004586 pbc="F F F"
Si       0.00000000       0.00000000       0.00000000       0.00000000       0.00000000       0.91454893
Si       0.00000000       0.00000000       3.58969697       0.00000000       0.00000000      -0.91454893
2
Properties=species:S:1:pos:R:3:forces:R:3 energy=-3.037307431823787 pbc="F F F"
Si       0.00000000       0.00000000       0.00000000       0.00000000       0.00000000       0.81379765
Si       0.00000000       0.00000000       3.64848485       0.00000000       0.00000000      -0.81379765
2
Properties=species:S:1:pos:R:3:forces:R:3 energy=-2.9922443273121075 pbc="F F F"
Si       0.00000000       0.00000000       0.00000000       0.00000000       0.00000000       0.72056806
Si       0.00000000       0.00000000       3.70727273       0.00000000       0.00000000      -0.72056806
2
Properties=species:S:1:pos:R:3:forces:R:3 energy=-2.952425992550533 pbc="F F F"
Si       0.00000000       0.00000000       0.00000000       0.00000000       0.00000000       0.63555270
Si       0.00000000       0.00000000       3.76606061       0.00000000       0.00000000      -0.63555270
2
Properties=species:S:1:pos:R:3:forces:R:3 energy=-2.917343151823715 pbc="F F F"
Si       0.00000000       0.00000000       0.00000000       0.00000000       0.00000000       0.55961984
Si       0.00000000       0.00000000       3.82484848       0.00000000       0.00000000      -0.55961984
2
Properties=species:S:1:pos:R:3:forces:R:3 energy=-2.8864403505758554 pbc="F F F"
Si       0.00000000       0.00000000       0.00000000       0.00000000       0.00000000       0.49324369
Si       0.00000000       0.00000000       3.88363636       0.00000000       0.00000000      -0.49324369
2
Properties=species:S:1:pos:R:3:forces:R:3 energy=-2.8591645231087535 pbc="F F F"
Si       0.00000000       0.00000000       0.00000000       0.00000000       0.00000000       0.43618292
Si       0.00000000       0.00000000       3.94242424       0.00000000       0.00000000      -0.43618292
2
Properties=species:S:1:pos:R:3:forces:R:3 energy=-2.83499154974285 pbc="F F F"
Si       0.00000000       0.00000000       0.00000000       0.00000000       0.00000000       0.38754445
Si       0.00000000       0.00000000       4.00121212       0.00000000       0.00000000      -0.38754445
2
Properties=species:S:1:pos:R:3:forces:R:3 energy=-2.8134585898771403 pbc="F F F"
Si       0.00000000       0.00000000       0.00000000       0.00000000       0.00000000       0.34610480
Si       0.00000000       0.00000000       4.06000000       0.00000000       0.00000000      -0.34610480
2
Properties=species:S:1:pos:R:3:forces:R:3 energy=-2.794179163380198 pbc="F F F"
Si       0.00000000       0.00000000       0.00000000       0.00000000       0.00000000       0.31067178
Si       0.00000000       0.00000000       4.11878788       0.00000000       0.00000000      -0.31067178
2
Properties=species:S:1:pos:R:3:forces:R:3 energy=-2.7768324954459414 pbc="F F F"
Si       0.00000000       0.00000000       0.00000000       0.00000000       0.00000000       0.28031024
Si       0.00000000       0.00000000       4.17757576       0.00000000       0.00000000      -0.28031024
2
Properties=species:S:1:pos:R:3:forces:R:3 energy=-2.761134808161656 pbc="F F F"
Si       0.00000000       0.00000000       0.00000000       0.00000000       0.00000000       0.25440058
Si       0.00000000       0.00000000       4.23636364       0.00000000       0.00000000      -0.25440058
2
Properties=species:S:1:pos:R:3:forces:R:3 energy=-2.746841044122942 pbc="F F F"
Si       0.00000000       0.00000000       0.00000000       0.00000000       0.00000000       0.23252383
Si       0.00000000       0.00000000       4.29515152       0.00000000       0.00000000      -0.23252383
2
Properties=species:S:1:pos:R:3:forces:R:3 energy=-2.733722859064528 pbc="F F F"
Si       0.00000000       0.00000000       0.00000000       0.00000000       0.00000000       0.21428464
Si       0.00000000       0.00000000       4.35393939       0.00000000       0.00000000      -0.21428464
2
Properties=species:S:1:pos:R:3:forces:R:3 energy=-2.721583722258226 pbc="F F F"
Si       0.00000000       0.00000000       0.00000000       0.00000000       0.00000000       0.19916718
Si       0.00000000       0.00000000       4.41272727       0.00000000       0.00000000      -0.19916718
2
Properties=species:S:1:pos:R:3:forces:R:3 energy=-2.7102589085933753 pbc="F F F"
Si       0.00000000       0.00000000       0.00000000       0.00000000       0.00000000       0.18651724
Si       0.00000000       0.00000000       4.47151515       0.00000000       0.00000000      -0.18651724
2
Properties=species:S:1:pos:R:3:forces:R:3 energy=-2.6996220887658593 pbc="F F F"
Si       0.00000000       0.00000000       0.00000000       0.00000000       0.00000000       0.17560804
Si       0.00000000       0.00000000       4.53030303       0.00000000       0.00000000      -0.17560804
2
Properties=species:S:1:pos:R:3:forces:R:3 energy=-2.6895910465722737 pbc="F F F"
Si       0.00000000       0.00000000       0.00000000       0.00000000       0.00000000       0.16575979
Si       0.00000000       0.00000000       4.58909091       0.00000000       0.00000000      -0.16575979
2
Properties=species:S:1:pos:R:3:forces:R:3 energy=-2.6801219790387782 pbc="F F F"
Si       0.00000000       0.00000000       0.00000000       0.00000000       0.00000000       0.15645023
Si       0.00000000       0.00000000       4.64787879       0.00000000       0.00000000      -0.15645023
2
Properties=species:S:1:pos:R:3:forces:R:3 energy=-2.671191352850423 pbc="F F F"
Si       0.00000000       0.00000000       0.00000000       0.00000000       0.00000000       0.14736921
Si       0.00000000       0.00000000       4.70666667       0.00000000       0.00000000      -0.14736921
2
Properties=species:S:1:pos:R:3:forces:R:3 energy=-2.6627921545942344 pbc="F F F"
Si       0.00000000       0.00000000       0.00000000       0.00000000       0.00000000       0.13843831
Si       0.00000000       0.00000000       4.76545455       0.00000000       0.00000000      -0.13843831
2
Properties=species:S:1:pos:R:3:forces:R:3 energy=-2.6549091554156106 pbc="F F F"
Si       0.00000000       0.00000000       0.00000000       0.00000000       0.00000000       0.12977085
Si       0.00000000       0.00000000       4.82424242       0.00000000       0.00000000      -0.12977085
2
Properties=species:S:1:pos:R:3:forces:R:3 energy=-2.6475246869171953 pbc="F F F"
Si       0.00000000       0.00000000       0.00000000       0.00000000       0.00000000       0.12160550
Si       0.00000000       0.00000000       4.88303030       0.00000000       0.00000000      -0.12160550
2
Properties=species:S:1:pos:R:3:forces:R:3 energy=-2.640597692002141 pbc="F F F"
Si       0.00000000       0.00000000       0.00000000       0.00000000       0.00000000       0.11420347
Si       0.00000000       0.00000000       4.94181818       0.00000000       0.00000000      -0.11420347
2
Properties=species:S:1:pos:R:3:forces:R:3 energy=-2.6340771586779104 pbc="F F F"
Si       0.00000000       0.00000000       0.00000000       0.00000000       0.00000000       0.10775569
Si       0.00000000       0.00000000       5.00060606       0.00000000       0.00000000      -0.10775569
2
Properties=species:S:1:pos:R:3:forces:R:3 energy=-2.6279079450563985 pbc="F F F"
Si       0.00000000       0.00000000       0.00000000       0.00000000       0.00000000       0.10227943
Si       0.00000000       0.00000000       5.05939394       0.00000000       0.00000000      -0.10227943
2
Properties=species:S:1:pos:R:3:forces:R:3 energy=-2.6220374487385 pbc="F F F"
Si       0.00000000       0.00000000       0.00000000       0.00000000       0.00000000       0.09758039
Si       0.00000000       0.00000000       5.11818182       0.00000000       0.00000000      -0.09758039
2
Properties=species:S:1:pos:R:3:forces:R:3 energy=-2.616426185138657 pbc="F F F"
Si       0.00000000       0.00000000       0.00000000       0.00000000       0.00000000       0.09325595
Si       0.00000000       0.00000000       5.17696970       0.00000000       0.00000000      -0.09325595
2
Properties=species:S:1:pos:R:3:forces:R:3 energy=-2.6110764840375036 pbc="F F F"
Si       0.00000000       0.00000000       0.00000000       0.00000000       0.00000000       0.08877209
Si       0.00000000       0.00000000       5.23575758       0.00000000       0.00000000      -0.08877209
2
Properties=species:S:1:pos:R:3:forces:R:3 energy=-2.606003842922418 pbc="F F F"
Si       0.00000000       0.00000000       0.00000000       0.00000000       0.00000000       0.08357464
Si       0.00000000       0.00000000       5.29454545       0.00000000       0.00000000      -0.08357464
2
Properties=species:S:1:pos:R:3:forces:R:3 energy=-2.601271385975801 pbc="F F F"
Si       0.00000000       0.00000000       0.00000000       0.00000000       0.00000000       0.07722578
Si       0.00000000       0.00000000       5.35333333       0.00000000       0.00000000      -0.07722578
2
Properties=species:S:1:pos:R:3:forces:R:3 energy=-2.5969517083909084 pbc="F F F"
Si       0.00000000       0.00000000       0.00000000       0.00000000       0.00000000       0.06952111
Si       0.00000000       0.00000000       5.41212121       0.00000000       0.00000000      -0.06952111
2
Properties=species:S:1:pos:R:3:forces:R:3 energy=-2.593122128591111 pbc="F F F"
Si       0.00000000       0.00000000       0.00000000       0.00000000       0.00000000       0.06053938
Si       0.00000000       0.00000000       5.47090909       0.00000000       0.00000000      -0.06053938
2
Properties=species:S:1:pos:R:3:forces:R:3 energy=-2.589851392226354 pbc="F F F"
Si       0.00000000       0.00000000       0.00000000       0.00000000       0.00000000       0.05066080
Si       0.00000000       0.00000000       5.52969697       0.00000000       0.00000000      -0.05066080
2
Properties=species:S:1:pos:R:3:forces:R:3 energy=-2.5871729716681657 pbc="F F F"
Si       0.00000000       0.00000000       0.00000000       0.00000000       0.00000000       0.04048017
Si       0.00000000       0.00000000       5.58848485       0.00000000       0.00000000      -0.04048017
2
Properties=species:S:1:pos:R:3:forces:R:3 energy=-2.5850831792518654 pbc="F F F"
Si       0.00000000       0.00000000       0.00000000       0.00000000       0.00000000       0.03072660
Si       0.00000000       0.00000000       5.64727273       0.00000000       0.00000000      -0.03072660
2
Properties=species:S:1:pos:R:3:forces:R:3 energy=-2.583537354163212 pbc="F F F"
Si       0.00000000       0.00000000       0.00000000       0.00000000       0.00000000       0.02209658
Si       0.00000000       0.00000000       5.70606061       0.00000000       0.00000000      -0.02209658
2
Properties=species:S:1:pos:R:3:forces:R:3 energy=-2.582450853334628 pbc="F F F"
Si       0.00000000       0.00000000       0.00000000       0.00000000       0.00000000       0.01514873
Si       0.00000000       0.00000000       5.76484848       0.00000000       0.00000000      -0.01514873
2
Properties=species:S:1:pos:R:3:forces:R:3 energy=-2.581717153834191 pbc="F F F"
Si       0.00000000       0.00000000       0.00000000       0.00000000       0.00000000       0.01018834
Si       0.00000000       0.00000000       5.82363636       0.00000000       0.00000000      -0.01018834
2
Properties=species:S:1:pos:R:3:forces:R:3 energy=-2.5812154893877652 pbc="F F F"
Si       0.00000000       0.00000000       0.00000000       0.00000000       0.00000000       0.00718686
Si       0.00000000       0.00000000       5.88242424       0.00000000       0.00000000      -0.00718686
2
Properties=species:S:1:pos:R:3:forces:R:3 energy=-2.58084234301424 pbc="F F F"
Si       0.00000000       0.00000000       0.00000000       0.00000000       0.00000000       0.00576784
Si       0.00000000       0.00000000       5.94121212       0.00000000       0.00000000      -0.00576784
2
Properties=species:S:1:pos:R:3:forces:R:3 energy=-2.580520010295492 pbc="F F F"
Si       0.00000000       0.00000000       0.00000000       0.00000000       0.00000000       0.00526128
Si       0.00000000       0.00000000       6.00000000       0.00000000       0.00000000      -0.00526128
