2
Properties=species:S:1:pos:R:3:forces:R:3 energy=211772095.86296976 pbc="F F F"
Sm       0.00000000       0.00000000       0.00000000       0.00000000       0.00000000 -1954527744.00000000
Sm       0.00000000       0.00000000       0.18000000       0.00000000       0.00000000 1954527744.00000000
2
Properties=species:S:1:pos:R:3:forces:R:3 energy=110947855.86296974 pbc="F F F"
Sm       0.00000000       0.00000000       0.00000000       0.00000000       0.00000000 -1415460480.00000000
Sm       0.00000000       0.00000000       0.23878788       0.00000000       0.00000000 1415460480.00000000
2
Properties=species:S:1:pos:R:3:forces:R:3 energy=46937527.86296975 pbc="F F F"
Sm       0.00000000       0.00000000       0.00000000       0.00000000       0.00000000 -778213376.00000000
Sm       0.00000000       0.00000000       0.29757576       0.00000000       0.00000000 778213376.00000000
2
Properties=species:S:1:pos:R:3:forces:R:3 energy=15654422.862969745 pbc="F F F"
Sm       0.00000000       0.00000000       0.00000000       0.00000000       0.00000000 -325346272.00000000
Sm       0.00000000       0.00000000       0.35636364       0.00000000       0.00000000 325346272.00000000
2
Properties=species:S:1:pos:R:3:forces:R:3 energy=4007255.8629697454 pbc="F F F"
Sm       0.00000000       0.00000000       0.00000000       0.00000000       0.00000000 -103930512.00000000
Sm       0.00000000       0.00000000       0.41515152       0.00000000       0.00000000 103930512.00000000
2
Properties=species:S:1:pos:R:3:forces:R:3 energy=724128.8629697708 pbc="F F F"
Sm       0.00000000       0.00000000       0.00000000       0.00000000       0.00000000 -24154426.00000000
Sm       0.00000000       0.00000000       0.47393939       0.00000000       0.00000000 24154426.00000000
2
Properties=species:S:1:pos:R:3:forces:R:3 energy=79456.43328227077 pbc="F F F"
Sm       0.00000000       0.00000000       0.00000000       0.00000000       0.00000000 -3319534.75000000
Sm       0.00000000       0.00000000       0.53272727       0.00000000       0.00000000 3319534.75000000
2
Properties=species:S:1:pos:R:3:forces:R:3 energy=7351.331719796114 pbc="F F F"
Sm       0.00000000       0.00000000       0.00000000       0.00000000       0.00000000 -220315.04687500
Sm       0.00000000       0.00000000       0.59151515       0.00000000       0.00000000  220315.04687500
2
Properties=species:S:1:pos:R:3:forces:R:3 energy=3278.9283995342994 pbc="F F F"
Sm       0.00000000       0.00000000       0.00000000       0.00000000       0.00000000   -8588.72070312
Sm       0.00000000       0.00000000       0.65030303       0.00000000       0.00000000    8588.72070312
2
Properties=species:S:1:pos:R:3:forces:R:3 energy=2609.3888488290772 pbc="F F F"
Sm       0.00000000       0.00000000       0.00000000       0.00000000       0.00000000  -15850.09375000
Sm       0.00000000       0.00000000       0.70909091       0.00000000       0.00000000   15850.09375000
2
Properties=species:S:1:pos:R:3:forces:R:3 energy=1665.3342835261026 pbc="F F F"
Sm       0.00000000       0.00000000       0.00000000       0.00000000       0.00000000  -14634.40722656
Sm       0.00000000       0.00000000       0.76787879       0.00000000       0.00000000   14634.40722656
2
Properties=species:S:1:pos:R:3:forces:R:3 energy=1009.1909120961269 pbc="F F F"
Sm       0.00000000       0.00000000       0.00000000       0.00000000       0.00000000   -8558.39453125
Sm       0.00000000       0.00000000       0.82666667       0.00000000       0.00000000    8558.39453125
2
Properties=species:S:1:pos:R:3:forces:R:3 energy=563.5591374345375 pbc="F F F"
Sm       0.00000000       0.00000000       0.00000000       0.00000000       0.00000000   -5499.10644531
Sm       0.00000000       0.00000000       0.88545455       0.00000000       0.00000000    5499.10644531
2
Properties=species:S:1:pos:R:3:forces:R:3 energy=333.3992256672874 pbc="F F F"
Sm       0.00000000       0.00000000       0.00000000       0.00000000       0.00000000   -2615.97167969
Sm       0.00000000       0.00000000       0.94424242       0.00000000       0.00000000    2615.97167969
2
Properties=species:S:1:pos:R:3:forces:R:3 energy=217.81782047113404 pbc="F F F"
Sm       0.00000000       0.00000000       0.00000000       0.00000000       0.00000000   -1470.76342773
Sm       0.00000000       0.00000000       1.00303030       0.00000000       0.00000000    1470.76342773
2
Properties=species:S:1:pos:R:3:forces:R:3 energy=151.5104327863631 pbc="F F F"
Sm       0.00000000       0.00000000       0.00000000       0.00000000       0.00000000    -840.56066895
Sm       0.00000000       0.00000000       1.06181818       0.00000000       0.00000000     840.56066895
2
Properties=species:S:1:pos:R:3:forces:R:3 energy=105.03778498939141 pbc="F F F"
Sm       0.00000000       0.00000000       0.00000000       0.00000000       0.00000000    -713.62390137
Sm       0.00000000       0.00000000       1.12060606       0.00000000       0.00000000     713.62390137
2
Properties=species:S:1:pos:R:3:forces:R:3 energy=70.39882427445876 pbc="F F F"
Sm       0.00000000       0.00000000       0.00000000       0.00000000       0.00000000    -431.56820679
Sm       0.00000000       0.00000000       1.17939394       0.00000000       0.00000000     431.56820679
2
Properties=species:S:1:pos:R:3:forces:R:3 energy=50.95191100812023 pbc="F F F"
Sm       0.00000000       0.00000000       0.00000000       0.00000000       0.00000000    -249.68309021
Sm       0.00000000       0.00000000       1.23818182       0.00000000       0.00000000     249.68309021
2
Properties=species:S:1:pos:R:3:forces:R:3 energy=38.8007363421352 pbc="F F F"
Sm       0.00000000       0.00000000       0.00000000       0.00000000       0.00000000    -162.24209595
Sm       0.00000000       0.00000000       1.29696970       0.00000000       0.00000000     162.24209595
2
Properties=species:S:1:pos:R:3:forces:R:3 energy=31.096978425187267 pbc="F F F"
Sm       0.00000000       0.00000000       0.00000000       0.00000000       0.00000000    -108.73637390
Sm       0.00000000       0.00000000       1.35575758       0.00000000       0.00000000     108.73637390
2
Properties=species:S:1:pos:R:3:forces:R:3 energy=25.0809023145813 pbc="F F F"
Sm       0.00000000       0.00000000       0.00000000       0.00000000       0.00000000     -97.54101562
Sm       0.00000000       0.00000000       1.41454545       0.00000000       0.00000000      97.54101562
2
Properties=species:S:1:pos:R:3:forces:R:3 energy=19.84285344369289 pbc="F F F"
Sm       0.00000000       0.00000000       0.00000000       0.00000000       0.00000000     -77.32504272
Sm       0.00000000       0.00000000       1.47333333       0.00000000       0.00000000      77.32504272
2
Properties=species:S:1:pos:R:3:forces:R:3 energy=16.074837122048198 pbc="F F F"
Sm       0.00000000       0.00000000       0.00000000       0.00000000       0.00000000     -53.23120499
Sm       0.00000000       0.00000000       1.53212121       0.00000000       0.00000000      53.23120499
2
Properties=species:S:1:pos:R:3:forces:R:3 energy=13.36988443126812 pbc="F F F"
Sm       0.00000000       0.00000000       0.00000000       0.00000000       0.00000000     -40.74361038
Sm       0.00000000       0.00000000       1.59090909       0.00000000       0.00000000      40.74361038
2
Properties=species:S:1:pos:R:3:forces:R:3 energy=11.170113239790734 pbc="F F F"
Sm       0.00000000       0.00000000       0.00000000       0.00000000       0.00000000     -32.84415817
Sm       0.00000000       0.00000000       1.64969697       0.00000000       0.00000000      32.84415817
2
Properties=species:S:1:pos:R:3:forces:R:3 energy=9.403723493080486 pbc="F F F"
Sm       0.00000000       0.00000000       0.00000000       0.00000000       0.00000000     -28.48063850
Sm       0.00000000       0.00000000       1.70848485       0.00000000       0.00000000      28.48063850
2
Properties=species:S:1:pos:R:3:forces:R:3 energy=7.866028300690298 pbc="F F F"
Sm       0.00000000       0.00000000       0.00000000       0.00000000       0.00000000     -23.48410416
Sm       0.00000000       0.00000000       1.76727273       0.00000000       0.00000000      23.48410416
2
Properties=species:S:1:pos:R:3:forces:R:3 energy=6.619674781890668 pbc="F F F"
Sm       0.00000000       0.00000000       0.00000000       0.00000000       0.00000000     -18.94662666
Sm       0.00000000       0.00000000       1.82606061       0.00000000       0.00000000      18.94662666
2
Properties=species:S:1:pos:R:3:forces:R:3 energy=5.572831982831977 pbc="F F F"
Sm       0.00000000       0.00000000       0.00000000       0.00000000       0.00000000     -17.08067894
Sm       0.00000000       0.00000000       1.88484848       0.00000000       0.00000000      17.08067894
2
Properties=species:S:1:pos:R:3:forces:R:3 energy=4.582422382625932 pbc="F F F"
Sm       0.00000000       0.00000000       0.00000000       0.00000000       0.00000000     -16.64664650
Sm       0.00000000       0.00000000       1.94363636       0.00000000       0.00000000      16.64664650
2
Properties=species:S:1:pos:R:3:forces:R:3 energy=3.617045655526621 pbc="F F F"
Sm       0.00000000       0.00000000       0.00000000       0.00000000       0.00000000     -16.16746521
Sm       0.00000000       0.00000000       2.00242424       0.00000000       0.00000000      16.16746521
2
Properties=species:S:1:pos:R:3:forces:R:3 energy=2.679353370929735 pbc="F F F"
Sm       0.00000000       0.00000000       0.00000000       0.00000000       0.00000000     -15.68709660
Sm       0.00000000       0.00000000       2.06121212       0.00000000       0.00000000      15.68709660
2
Properties=species:S:1:pos:R:3:forces:R:3 energy=1.79584860692588 pbc="F F F"
Sm       0.00000000       0.00000000       0.00000000       0.00000000       0.00000000     -14.17966843
Sm       0.00000000       0.00000000       2.12000000       0.00000000       0.00000000      14.17966843
2
Properties=species:S:1:pos:R:3:forces:R:3 energy=1.0112362696085946 pbc="F F F"
Sm       0.00000000       0.00000000       0.00000000       0.00000000       0.00000000     -12.64251328
Sm       0.00000000       0.00000000       2.17878788       0.00000000       0.00000000      12.64251328
2
Properties=species:S:1:pos:R:3:forces:R:3 energy=0.30729979170871813 pbc="F F F"
Sm       0.00000000       0.00000000       0.00000000       0.00000000       0.00000000     -11.23606014
Sm       0.00000000       0.00000000       2.23757576       0.00000000       0.00000000      11.23606014
2
Properties=species:S:1:pos:R:3:forces:R:3 energy=-0.30833658408041087 pbc="F F F"
Sm       0.00000000       0.00000000       0.00000000       0.00000000       0.00000000      -9.71660042
Sm       0.00000000       0.00000000       2.29636364       0.00000000       0.00000000       9.71660042
2
Properties=species:S:1:pos:R:3:forces:R:3 energy=-0.8313663593132116 pbc="F F F"
Sm       0.00000000       0.00000000       0.00000000       0.00000000       0.00000000      -8.04431820
Sm       0.00000000       0.00000000       2.35515152       0.00000000       0.00000000       8.04431820
2
Properties=species:S:1:pos:R:3:forces:R:3 energy=-1.2569899352373666 pbc="F F F"
Sm       0.00000000       0.00000000       0.00000000       0.00000000       0.00000000      -6.49187517
Sm       0.00000000       0.00000000       2.41393939       0.00000000       0.00000000       6.49187517
2
Properties=species:S:1:pos:R:3:forces:R:3 energy=-1.5999207926033923 pbc="F F F"
Sm       0.00000000       0.00000000       0.00000000       0.00000000       0.00000000      -5.20768452
Sm       0.00000000       0.00000000       2.47272727       0.00000000       0.00000000       5.20768452
2
Properties=species:S:1:pos:R:3:forces:R:3 energy=-1.872478613599894 pbc="F F F"
Sm       0.00000000       0.00000000       0.00000000       0.00000000       0.00000000      -4.09233379
Sm       0.00000000       0.00000000       2.53151515       0.00000000       0.00000000       4.09233379
2
Properties=species:S:1:pos:R:3:forces:R:3 energy=-2.085617355437941 pbc="F F F"
Sm       0.00000000       0.00000000       0.00000000       0.00000000       0.00000000      -3.20790577
Sm       0.00000000       0.00000000       2.59030303       0.00000000       0.00000000       3.20790577
2
Properties=species:S:1:pos:R:3:forces:R:3 energy=-2.2554186793872995 pbc="F F F"
Sm       0.00000000       0.00000000       0.00000000       0.00000000       0.00000000      -2.61059022
Sm       0.00000000       0.00000000       2.64909091       0.00000000       0.00000000       2.61059022
2
Properties=species:S:1:pos:R:3:forces:R:3 energy=-2.3958024317691966 pbc="F F F"
Sm       0.00000000       0.00000000       0.00000000       0.00000000       0.00000000      -2.17828107
Sm       0.00000000       0.00000000       2.70787879       0.00000000       0.00000000       2.17828107
2
Properties=species:S:1:pos:R:3:forces:R:3 energy=-2.5120659979705917 pbc="F F F"
Sm       0.00000000       0.00000000       0.00000000       0.00000000       0.00000000      -1.77945149
Sm       0.00000000       0.00000000       2.76666667       0.00000000       0.00000000       1.77945149
2
Properties=species:S:1:pos:R:3:forces:R:3 energy=-2.6057129582487604 pbc="F F F"
Sm       0.00000000       0.00000000       0.00000000       0.00000000       0.00000000      -1.41622281
Sm       0.00000000       0.00000000       2.82545455       0.00000000       0.00000000       1.41622281
2
Properties=species:S:1:pos:R:3:forces:R:3 energy=-2.6799625782987704 pbc="F F F"
Sm       0.00000000       0.00000000       0.00000000       0.00000000       0.00000000      -1.12175083
Sm       0.00000000       0.00000000       2.88424242       0.00000000       0.00000000       1.12175083
2
Properties=species:S:1:pos:R:3:forces:R:3 energy=-2.738800649882885 pbc="F F F"
Sm       0.00000000       0.00000000       0.00000000       0.00000000       0.00000000      -0.88775569
Sm       0.00000000       0.00000000       2.94303030       0.00000000       0.00000000       0.88775569
2
Properties=species:S:1:pos:R:3:forces:R:3 energy=-2.784940750553994 pbc="F F F"
Sm       0.00000000       0.00000000       0.00000000       0.00000000       0.00000000      -0.68479645
Sm       0.00000000       0.00000000       3.00181818       0.00000000       0.00000000       0.68479645
2
Properties=species:S:1:pos:R:3:forces:R:3 energy=-2.8195532861081536 pbc="F F F"
Sm       0.00000000       0.00000000       0.00000000       0.00000000       0.00000000      -0.49509290
Sm       0.00000000       0.00000000       3.06060606       0.00000000       0.00000000       0.49509290
2
Properties=species:S:1:pos:R:3:forces:R:3 energy=-2.8435633399589118 pbc="F F F"
Sm       0.00000000       0.00000000       0.00000000       0.00000000       0.00000000      -0.32641652
Sm       0.00000000       0.00000000       3.11939394       0.00000000       0.00000000       0.32641652
2
Properties=species:S:1:pos:R:3:forces:R:3 energy=-2.8585350206682496 pbc="F F F"
Sm       0.00000000       0.00000000       0.00000000       0.00000000       0.00000000      -0.18783799
Sm       0.00000000       0.00000000       3.17818182       0.00000000       0.00000000       0.18783799
2
Properties=species:S:1:pos:R:3:forces:R:3 energy=-2.8661456706160298 pbc="F F F"
Sm       0.00000000       0.00000000       0.00000000       0.00000000       0.00000000      -0.07456409
Sm       0.00000000       0.00000000       3.23696970       0.00000000       0.00000000       0.07456409
2
Properties=species:S:1:pos:R:3:forces:R:3 energy=-2.8676472427518434 pbc="F F F"
Sm       0.00000000       0.00000000       0.00000000       0.00000000       0.00000000       0.02102506
Sm       0.00000000       0.00000000       3.29575758       0.00000000       0.00000000      -0.02102506
2
Properties=species:S:1:pos:R:3:forces:R:3 energy=-2.8639653940248953 pbc="F F F"
Sm       0.00000000       0.00000000       0.00000000       0.00000000       0.00000000       0.10166769
Sm       0.00000000       0.00000000       3.35454545       0.00000000       0.00000000      -0.10166769
2
Properties=species:S:1:pos:R:3:forces:R:3 energy=-2.8560027031314683 pbc="F F F"
Sm       0.00000000       0.00000000       0.00000000       0.00000000       0.00000000       0.16654411
Sm       0.00000000       0.00000000       3.41333333       0.00000000       0.00000000      -0.16654411
2
Properties=species:S:1:pos:R:3:forces:R:3 energy=-2.8446626770995844 pbc="F F F"
Sm       0.00000000       0.00000000       0.00000000       0.00000000       0.00000000       0.21734232
Sm       0.00000000       0.00000000       3.47212121       0.00000000       0.00000000      -0.21734232
2
Properties=species:S:1:pos:R:3:forces:R:3 energy=-2.8305959218653776 pbc="F F F"
Sm       0.00000000       0.00000000       0.00000000       0.00000000       0.00000000       0.26056895
Sm       0.00000000       0.00000000       3.53090909       0.00000000       0.00000000      -0.26056895
2
Properties=species:S:1:pos:R:3:forces:R:3 energy=-2.814043815712935 pbc="F F F"
Sm       0.00000000       0.00000000       0.00000000       0.00000000       0.00000000       0.30279508
Sm       0.00000000       0.00000000       3.58969697       0.00000000       0.00000000      -0.30279508
2
Properties=species:S:1:pos:R:3:forces:R:3 energy=-2.7949634912949 pbc="F F F"
Sm       0.00000000       0.00000000       0.00000000       0.00000000       0.00000000       0.34639835
Sm       0.00000000       0.00000000       3.64848485       0.00000000       0.00000000      -0.34639835
2
Properties=species:S:1:pos:R:3:forces:R:3 energy=-2.773311967222319 pbc="F F F"
Sm       0.00000000       0.00000000       0.00000000       0.00000000       0.00000000       0.39018762
Sm       0.00000000       0.00000000       3.70727273       0.00000000       0.00000000      -0.39018762
2
Properties=species:S:1:pos:R:3:forces:R:3 energy=-2.749126345406239 pbc="F F F"
Sm       0.00000000       0.00000000       0.00000000       0.00000000       0.00000000       0.43213952
Sm       0.00000000       0.00000000       3.76606061       0.00000000       0.00000000      -0.43213952
2
Properties=species:S:1:pos:R:3:forces:R:3 energy=-2.722561945359076 pbc="F F F"
Sm       0.00000000       0.00000000       0.00000000       0.00000000       0.00000000       0.47098798
Sm       0.00000000       0.00000000       3.82484848       0.00000000       0.00000000      -0.47098798
2
Properties=species:S:1:pos:R:3:forces:R:3 energy=-2.6938197869327016 pbc="F F F"
Sm       0.00000000       0.00000000       0.00000000       0.00000000       0.00000000       0.50624990
Sm       0.00000000       0.00000000       3.88363636       0.00000000       0.00000000      -0.50624990
2
Properties=species:S:1:pos:R:3:forces:R:3 energy=-2.663115233107599 pbc="F F F"
Sm       0.00000000       0.00000000       0.00000000       0.00000000       0.00000000       0.53768522
Sm       0.00000000       0.00000000       3.94242424       0.00000000       0.00000000      -0.53768522
2
Properties=species:S:1:pos:R:3:forces:R:3 energy=-2.6306826950080033 pbc="F F F"
Sm       0.00000000       0.00000000       0.00000000       0.00000000       0.00000000       0.56499678
Sm       0.00000000       0.00000000       4.00121212       0.00000000       0.00000000      -0.56499678
2
Properties=species:S:1:pos:R:3:forces:R:3 energy=-2.596772821564105 pbc="F F F"
Sm       0.00000000       0.00000000       0.00000000       0.00000000       0.00000000       0.58788955
Sm       0.00000000       0.00000000       4.06000000       0.00000000       0.00000000      -0.58788955
2
Properties=species:S:1:pos:R:3:forces:R:3 energy=-2.561650655519861 pbc="F F F"
Sm       0.00000000       0.00000000       0.00000000       0.00000000       0.00000000       0.60618418
Sm       0.00000000       0.00000000       4.11878788       0.00000000       0.00000000      -0.60618418
2
Properties=species:S:1:pos:R:3:forces:R:3 energy=-2.5255937640982267 pbc="F F F"
Sm       0.00000000       0.00000000       0.00000000       0.00000000       0.00000000       0.61975038
Sm       0.00000000       0.00000000       4.17757576       0.00000000       0.00000000      -0.61975038
2
Properties=species:S:1:pos:R:3:forces:R:3 energy=-2.4888779719002776 pbc="F F F"
Sm       0.00000000       0.00000000       0.00000000       0.00000000       0.00000000       0.62837094
Sm       0.00000000       0.00000000       4.23636364       0.00000000       0.00000000      -0.62837094
2
Properties=species:S:1:pos:R:3:forces:R:3 energy=-2.4518107141637047 pbc="F F F"
Sm       0.00000000       0.00000000       0.00000000       0.00000000       0.00000000       0.63171935
Sm       0.00000000       0.00000000       4.29515152       0.00000000       0.00000000      -0.63171935
2
Properties=species:S:1:pos:R:3:forces:R:3 energy=-2.414715001697476 pbc="F F F"
Sm       0.00000000       0.00000000       0.00000000       0.00000000       0.00000000       0.62952667
Sm       0.00000000       0.00000000       4.35393939       0.00000000       0.00000000      -0.62952667
2
Properties=species:S:1:pos:R:3:forces:R:3 energy=-2.3779064693418004 pbc="F F F"
Sm       0.00000000       0.00000000       0.00000000       0.00000000       0.00000000       0.62178594
Sm       0.00000000       0.00000000       4.41272727       0.00000000       0.00000000      -0.62178594
2
Properties=species:S:1:pos:R:3:forces:R:3 energy=-2.3417087361274977 pbc="F F F"
Sm       0.00000000       0.00000000       0.00000000       0.00000000       0.00000000       0.60886943
Sm       0.00000000       0.00000000       4.47151515       0.00000000       0.00000000      -0.60886943
2
Properties=species:S:1:pos:R:3:forces:R:3 energy=-2.3064057595740466 pbc="F F F"
Sm       0.00000000       0.00000000       0.00000000       0.00000000       0.00000000       0.59149611
Sm       0.00000000       0.00000000       4.53030303       0.00000000       0.00000000      -0.59149611
2
Properties=species:S:1:pos:R:3:forces:R:3 energy=-2.272228496920441 pbc="F F F"
Sm       0.00000000       0.00000000       0.00000000       0.00000000       0.00000000       0.57059717
Sm       0.00000000       0.00000000       4.58909091       0.00000000       0.00000000      -0.57059717
2
Properties=species:S:1:pos:R:3:forces:R:3 energy=-2.239365572940711 pbc="F F F"
Sm       0.00000000       0.00000000       0.00000000       0.00000000       0.00000000       0.54720807
Sm       0.00000000       0.00000000       4.64787879       0.00000000       0.00000000      -0.54720807
2
Properties=species:S:1:pos:R:3:forces:R:3 energy=-2.207921166218541 pbc="F F F"
Sm       0.00000000       0.00000000       0.00000000       0.00000000       0.00000000       0.52236718
Sm       0.00000000       0.00000000       4.70666667       0.00000000       0.00000000      -0.52236718
2
Properties=species:S:1:pos:R:3:forces:R:3 energy=-2.177957173557804 pbc="F F F"
Sm       0.00000000       0.00000000       0.00000000       0.00000000       0.00000000       0.49712351
Sm       0.00000000       0.00000000       4.76545455       0.00000000       0.00000000      -0.49712351
2
Properties=species:S:1:pos:R:3:forces:R:3 energy=-2.1494588270220207 pbc="F F F"
Sm       0.00000000       0.00000000       0.00000000       0.00000000       0.00000000       0.47248366
Sm       0.00000000       0.00000000       4.82424242       0.00000000       0.00000000      -0.47248366
2
Properties=species:S:1:pos:R:3:forces:R:3 energy=-2.122374849625957 pbc="F F F"
Sm       0.00000000       0.00000000       0.00000000       0.00000000       0.00000000       0.44935137
Sm       0.00000000       0.00000000       4.88303030       0.00000000       0.00000000      -0.44935137
2
Properties=species:S:1:pos:R:3:forces:R:3 energy=-2.0965830343612093 pbc="F F F"
Sm       0.00000000       0.00000000       0.00000000       0.00000000       0.00000000       0.42835572
Sm       0.00000000       0.00000000       4.94181818       0.00000000       0.00000000      -0.42835572
2
Properties=species:S:1:pos:R:3:forces:R:3 energy=-2.071963696125506 pbc="F F F"
Sm       0.00000000       0.00000000       0.00000000       0.00000000       0.00000000       0.40970150
Sm       0.00000000       0.00000000       5.00060606       0.00000000       0.00000000      -0.40970150
2
Properties=species:S:1:pos:R:3:forces:R:3 energy=-2.048371219884319 pbc="F F F"
Sm       0.00000000       0.00000000       0.00000000       0.00000000       0.00000000       0.39302367
Sm       0.00000000       0.00000000       5.05939394       0.00000000       0.00000000      -0.39302367
2
Properties=species:S:1:pos:R:3:forces:R:3 energy=-2.0257310756897233 pbc="F F F"
Sm       0.00000000       0.00000000       0.00000000       0.00000000       0.00000000       0.37736157
Sm       0.00000000       0.00000000       5.11818182       0.00000000       0.00000000      -0.37736157
2
Properties=species:S:1:pos:R:3:forces:R:3 energy=-2.0040160908640816 pbc="F F F"
Sm       0.00000000       0.00000000       0.00000000       0.00000000       0.00000000       0.36130866
Sm       0.00000000       0.00000000       5.17696970       0.00000000       0.00000000      -0.36130866
2
Properties=species:S:1:pos:R:3:forces:R:3 energy=-1.9832912283434077 pbc="F F F"
Sm       0.00000000       0.00000000       0.00000000       0.00000000       0.00000000       0.34326696
Sm       0.00000000       0.00000000       5.23575758       0.00000000       0.00000000      -0.34326696
2
Properties=species:S:1:pos:R:3:forces:R:3 energy=-1.9637229586937783 pbc="F F F"
Sm       0.00000000       0.00000000       0.00000000       0.00000000       0.00000000       0.32180247
Sm       0.00000000       0.00000000       5.29454545       0.00000000       0.00000000      -0.32180247
2
Properties=species:S:1:pos:R:3:forces:R:3 energy=-1.9455392754821303 pbc="F F F"
Sm       0.00000000       0.00000000       0.00000000       0.00000000       0.00000000       0.29599905
Sm       0.00000000       0.00000000       5.35333333       0.00000000       0.00000000      -0.29599905
2
Properties=species:S:1:pos:R:3:forces:R:3 energy=-1.9290076340540983 pbc="F F F"
Sm       0.00000000       0.00000000       0.00000000       0.00000000       0.00000000       0.26570141
Sm       0.00000000       0.00000000       5.41212121       0.00000000       0.00000000      -0.26570141
2
Properties=species:S:1:pos:R:3:forces:R:3 energy=-1.9143737389797242 pbc="F F F"
Sm       0.00000000       0.00000000       0.00000000       0.00000000       0.00000000       0.23163430
Sm       0.00000000       0.00000000       5.47090909       0.00000000       0.00000000      -0.23163430
2
Properties=species:S:1:pos:R:3:forces:R:3 energy=-1.9018138793445696 pbc="F F F"
Sm       0.00000000       0.00000000       0.00000000       0.00000000       0.00000000       0.19534999
Sm       0.00000000       0.00000000       5.52969697       0.00000000       0.00000000      -0.19534999
2
Properties=species:S:1:pos:R:3:forces:R:3 energy=-1.8914062298212038 pbc="F F F"
Sm       0.00000000       0.00000000       0.00000000       0.00000000       0.00000000       0.15896890
Sm       0.00000000       0.00000000       5.58848485       0.00000000       0.00000000      -0.15896890
2
Properties=species:S:1:pos:R:3:forces:R:3 energy=-1.8830829832196982 pbc="F F F"
Sm       0.00000000       0.00000000       0.00000000       0.00000000       0.00000000       0.12489644
Sm       0.00000000       0.00000000       5.64727273       0.00000000       0.00000000      -0.12489644
2
Properties=species:S:1:pos:R:3:forces:R:3 energy=-1.876636028184016 pbc="F F F"
Sm       0.00000000       0.00000000       0.00000000       0.00000000       0.00000000       0.09533678
Sm       0.00000000       0.00000000       5.70606061       0.00000000       0.00000000      -0.09533678
2
Properties=species:S:1:pos:R:3:forces:R:3 energy=-1.871747416084981 pbc="F F F"
Sm       0.00000000       0.00000000       0.00000000       0.00000000       0.00000000       0.07196933
Sm       0.00000000       0.00000000       5.76484848       0.00000000       0.00000000      -0.07196933
2
Properties=species:S:1:pos:R:3:forces:R:3 energy=-1.868034069671553 pbc="F F F"
Sm       0.00000000       0.00000000       0.00000000       0.00000000       0.00000000       0.05564152
Sm       0.00000000       0.00000000       5.82363636       0.00000000       0.00000000      -0.05564152
2
Properties=species:S:1:pos:R:3:forces:R:3 energy=-1.8650762792587219 pbc="F F F"
Sm       0.00000000       0.00000000       0.00000000       0.00000000       0.00000000       0.04606687
Sm       0.00000000       0.00000000       5.88242424       0.00000000       0.00000000      -0.04606687
2
Properties=species:S:1:pos:R:3:forces:R:3 energy=-1.8625121608343422 pbc="F F F"
Sm       0.00000000       0.00000000       0.00000000       0.00000000       0.00000000       0.04184044
Sm       0.00000000       0.00000000       5.94121212       0.00000000       0.00000000      -0.04184044
2
Properties=species:S:1:pos:R:3:forces:R:3 energy=-1.860096600133065 pbc="F F F"
Sm       0.00000000       0.00000000       0.00000000       0.00000000       0.00000000       0.04060670
Sm       0.00000000       0.00000000       6.00000000       0.00000000       0.00000000      -0.04060670
