2
Properties=species:S:1:pos:R:3:forces:R:3 energy=-2947646.0509570865 pbc="F F F"
Sn       0.00000000       0.00000000       0.00000000       0.00000000       0.00000000 28012128.00000000
Sn       0.00000000       0.00000000       0.18000000       0.00000000       0.00000000 -28012128.00000000
2
Properties=species:S:1:pos:R:3:forces:R:3 energy=-1529314.6759570865 pbc="F F F"
Sn       0.00000000       0.00000000       0.00000000       0.00000000       0.00000000 19632966.00000000
Sn       0.00000000       0.00000000       0.23878788       0.00000000       0.00000000 -19632966.00000000
2
Properties=species:S:1:pos:R:3:forces:R:3 energy=-650844.8634570802 pbc="F F F"
Sn       0.00000000       0.00000000       0.00000000       0.00000000       0.00000000 10544404.00000000
Sn       0.00000000       0.00000000       0.29757576       0.00000000       0.00000000 -10544404.00000000
2
Properties=species:S:1:pos:R:3:forces:R:3 energy=-238177.8322070802 pbc="F F F"
Sn       0.00000000       0.00000000       0.00000000       0.00000000       0.00000000 4184156.75000000
Sn       0.00000000       0.00000000       0.35636364       0.00000000       0.00000000 -4184156.75000000
2
Properties=species:S:1:pos:R:3:forces:R:3 energy=-80786.37908207388 pbc="F F F"
Sn       0.00000000       0.00000000       0.00000000       0.00000000       0.00000000 1530305.37500000
Sn       0.00000000       0.00000000       0.41515152       0.00000000       0.00000000 -1530305.37500000
2
Properties=species:S:1:pos:R:3:forces:R:3 energy=-26206.44548831438 pbc="F F F"
Sn       0.00000000       0.00000000       0.00000000       0.00000000       0.00000000  491061.46875000
Sn       0.00000000       0.00000000       0.47393939       0.00000000       0.00000000 -491061.46875000
2
Properties=species:S:1:pos:R:3:forces:R:3 energy=-8742.801933604707 pbc="F F F"
Sn       0.00000000       0.00000000       0.00000000       0.00000000       0.00000000  167749.15625000
Sn       0.00000000       0.00000000       0.53272727       0.00000000       0.00000000 -167749.15625000
2
Properties=species:S:1:pos:R:3:forces:R:3 energy=-2620.8456347417355 pbc="F F F"
Sn       0.00000000       0.00000000       0.00000000       0.00000000       0.00000000   54933.01562500
Sn       0.00000000       0.00000000       0.59151515       0.00000000       0.00000000  -54933.01562500
2
Properties=species:S:1:pos:R:3:forces:R:3 energy=-652.640861735496 pbc="F F F"
Sn       0.00000000       0.00000000       0.00000000       0.00000000       0.00000000   18363.51757812
Sn       0.00000000       0.00000000       0.65030303       0.00000000       0.00000000  -18363.51757812
2
Properties=species:S:1:pos:R:3:forces:R:3 energy=488.9964674611012 pbc="F F F"
Sn       0.00000000       0.00000000       0.00000000       0.00000000       0.00000000    1838.80273438
Sn       0.00000000       0.00000000       0.70909091       0.00000000       0.00000000   -1838.80273438
2
Properties=species:S:1:pos:R:3:forces:R:3 energy=300.30930329067695 pbc="F F F"
Sn       0.00000000       0.00000000       0.00000000       0.00000000       0.00000000   -4401.00439453
Sn       0.00000000       0.00000000       0.76787879       0.00000000       0.00000000    4401.00439453
2
Properties=species:S:1:pos:R:3:forces:R:3 energy=85.34593984912443 pbc="F F F"
Sn       0.00000000       0.00000000       0.00000000       0.00000000       0.00000000   -3242.60522461
Sn       0.00000000       0.00000000       0.82666667       0.00000000       0.00000000    3242.60522461
2
Properties=species:S:1:pos:R:3:forces:R:3 energy=-2.5532383643797765 pbc="F F F"
Sn       0.00000000       0.00000000       0.00000000       0.00000000       0.00000000    -294.43267822
Sn       0.00000000       0.00000000       0.88545455       0.00000000       0.00000000     294.43267822
2
Properties=species:S:1:pos:R:3:forces:R:3 energy=0.2650003089667412 pbc="F F F"
Sn       0.00000000       0.00000000       0.00000000       0.00000000       0.00000000     353.53280640
Sn       0.00000000       0.00000000       0.94424242       0.00000000       0.00000000    -353.53280640
2
Properties=species:S:1:pos:R:3:forces:R:3 energy=19.550658755529515 pbc="F F F"
Sn       0.00000000       0.00000000       0.00000000       0.00000000       0.00000000     215.03919983
Sn       0.00000000       0.00000000       1.00303030       0.00000000       0.00000000    -215.03919983
2
Properties=species:S:1:pos:R:3:forces:R:3 energy=25.364754062431683 pbc="F F F"
Sn       0.00000000       0.00000000       0.00000000       0.00000000       0.00000000      46.29162598
Sn       0.00000000       0.00000000       1.06181818       0.00000000       0.00000000     -46.29162598
2
Properties=species:S:1:pos:R:3:forces:R:3 energy=26.161893293413918 pbc="F F F"
Sn       0.00000000       0.00000000       0.00000000       0.00000000       0.00000000     -47.70903397
Sn       0.00000000       0.00000000       1.12060606       0.00000000       0.00000000      47.70903397
2
Properties=species:S:1:pos:R:3:forces:R:3 energy=25.34168893542266 pbc="F F F"
Sn       0.00000000       0.00000000       0.00000000       0.00000000       0.00000000      14.90225315
Sn       0.00000000       0.00000000       1.17939394       0.00000000       0.00000000     -14.90225315
2
Properties=species:S:1:pos:R:3:forces:R:3 energy=26.523686044227965 pbc="F F F"
Sn       0.00000000       0.00000000       0.00000000       0.00000000       0.00000000      45.99499512
Sn       0.00000000       0.00000000       1.23818182       0.00000000       0.00000000     -45.99499512
2
Properties=species:S:1:pos:R:3:forces:R:3 energy=26.29974643971802 pbc="F F F"
Sn       0.00000000       0.00000000       0.00000000       0.00000000       0.00000000     -42.40016174
Sn       0.00000000       0.00000000       1.29696970       0.00000000       0.00000000      42.40016174
2
Properties=species:S:1:pos:R:3:forces:R:3 energy=24.015752639034616 pbc="F F F"
Sn       0.00000000       0.00000000       0.00000000       0.00000000       0.00000000     -38.89440536
Sn       0.00000000       0.00000000       1.35575758       0.00000000       0.00000000      38.89440536
2
Properties=species:S:1:pos:R:3:forces:R:3 energy=21.177047242907683 pbc="F F F"
Sn       0.00000000       0.00000000       0.00000000       0.00000000       0.00000000     -50.63471985
Sn       0.00000000       0.00000000       1.41454545       0.00000000       0.00000000      50.63471985
2
Properties=species:S:1:pos:R:3:forces:R:3 energy=18.559267073198487 pbc="F F F"
Sn       0.00000000       0.00000000       0.00000000       0.00000000       0.00000000     -41.42506790
Sn       0.00000000       0.00000000       1.47333333       0.00000000       0.00000000      41.42506790
2
Properties=species:S:1:pos:R:3:forces:R:3 energy=16.252700444193945 pbc="F F F"
Sn       0.00000000       0.00000000       0.00000000       0.00000000       0.00000000     -38.14270782
Sn       0.00000000       0.00000000       1.53212121       0.00000000       0.00000000      38.14270782
2
Properties=species:S:1:pos:R:3:forces:R:3 energy=14.015156231266113 pbc="F F F"
Sn       0.00000000       0.00000000       0.00000000       0.00000000       0.00000000     -37.29470825
Sn       0.00000000       0.00000000       1.59090909       0.00000000       0.00000000      37.29470825
2
Properties=species:S:1:pos:R:3:forces:R:3 energy=11.9063804352333 pbc="F F F"
Sn       0.00000000       0.00000000       0.00000000       0.00000000       0.00000000     -34.23683167
Sn       0.00000000       0.00000000       1.64969697       0.00000000       0.00000000      34.23683167
2
Properties=species:S:1:pos:R:3:forces:R:3 energy=9.938816839330453 pbc="F F F"
Sn       0.00000000       0.00000000       0.00000000       0.00000000       0.00000000     -32.90380859
Sn       0.00000000       0.00000000       1.70848485       0.00000000       0.00000000      32.90380859
2
Properties=species:S:1:pos:R:3:forces:R:3 energy=8.046009903436227 pbc="F F F"
Sn       0.00000000       0.00000000       0.00000000       0.00000000       0.00000000     -31.70311356
Sn       0.00000000       0.00000000       1.76727273       0.00000000       0.00000000      31.70311356
2
Properties=species:S:1:pos:R:3:forces:R:3 energy=6.2027413783513925 pbc="F F F"
Sn       0.00000000       0.00000000       0.00000000       0.00000000       0.00000000     -30.69815445
Sn       0.00000000       0.00000000       1.82606061       0.00000000       0.00000000      30.69815445
2
Properties=species:S:1:pos:R:3:forces:R:3 energy=4.46958423991075 pbc="F F F"
Sn       0.00000000       0.00000000       0.00000000       0.00000000       0.00000000     -28.21607399
Sn       0.00000000       0.00000000       1.88484848       0.00000000       0.00000000      28.21607399
2
Properties=species:S:1:pos:R:3:forces:R:3 energy=2.886331443956034 pbc="F F F"
Sn       0.00000000       0.00000000       0.00000000       0.00000000       0.00000000     -25.54994202
Sn       0.00000000       0.00000000       1.94363636       0.00000000       0.00000000      25.54994202
2
Properties=species:S:1:pos:R:3:forces:R:3 energy=1.474393403378731 pbc="F F F"
Sn       0.00000000       0.00000000       0.00000000       0.00000000       0.00000000     -22.43917274
Sn       0.00000000       0.00000000       2.00242424       0.00000000       0.00000000      22.43917274
2
Properties=species:S:1:pos:R:3:forces:R:3 energy=0.26236651139396105 pbc="F F F"
Sn       0.00000000       0.00000000       0.00000000       0.00000000       0.00000000     -18.75968170
Sn       0.00000000       0.00000000       2.06121212       0.00000000       0.00000000      18.75968170
2
Properties=species:S:1:pos:R:3:forces:R:3 energy=-0.7482567143500033 pbc="F F F"
Sn       0.00000000       0.00000000       0.00000000       0.00000000       0.00000000     -15.76686192
Sn       0.00000000       0.00000000       2.12000000       0.00000000       0.00000000      15.76686192
2
Properties=species:S:1:pos:R:3:forces:R:3 energy=-1.6002370674952229 pbc="F F F"
Sn       0.00000000       0.00000000       0.00000000       0.00000000       0.00000000     -13.27607441
Sn       0.00000000       0.00000000       2.17878788       0.00000000       0.00000000      13.27607441
2
Properties=species:S:1:pos:R:3:forces:R:3 energy=-2.3122926402953343 pbc="F F F"
Sn       0.00000000       0.00000000       0.00000000       0.00000000       0.00000000     -10.94789886
Sn       0.00000000       0.00000000       2.23757576       0.00000000       0.00000000      10.94789886
2
Properties=species:S:1:pos:R:3:forces:R:3 energy=-2.8900557208852713 pbc="F F F"
Sn       0.00000000       0.00000000       0.00000000       0.00000000       0.00000000      -8.74489880
Sn       0.00000000       0.00000000       2.29636364       0.00000000       0.00000000       8.74489880
2
Properties=species:S:1:pos:R:3:forces:R:3 energy=-3.3449087069986527 pbc="F F F"
Sn       0.00000000       0.00000000       0.00000000       0.00000000       0.00000000      -6.77747059
Sn       0.00000000       0.00000000       2.35515152       0.00000000       0.00000000       6.77747059
2
Properties=species:S:1:pos:R:3:forces:R:3 energy=-3.693752982498048 pbc="F F F"
Sn       0.00000000       0.00000000       0.00000000       0.00000000       0.00000000      -5.14256382
Sn       0.00000000       0.00000000       2.41393939       0.00000000       0.00000000       5.14256382
2
Properties=species:S:1:pos:R:3:forces:R:3 energy=-3.954353909491539 pbc="F F F"
Sn       0.00000000       0.00000000       0.00000000       0.00000000       0.00000000      -3.76122665
Sn       0.00000000       0.00000000       2.47272727       0.00000000       0.00000000       3.76122665
2
Properties=species:S:1:pos:R:3:forces:R:3 energy=-4.140671863794962 pbc="F F F"
Sn       0.00000000       0.00000000       0.00000000       0.00000000       0.00000000      -2.61954999
Sn       0.00000000       0.00000000       2.53151515       0.00000000       0.00000000       2.61954999
2
Properties=species:S:1:pos:R:3:forces:R:3 energy=-4.2675794265469085 pbc="F F F"
Sn       0.00000000       0.00000000       0.00000000       0.00000000       0.00000000      -1.74112427
Sn       0.00000000       0.00000000       2.59030303       0.00000000       0.00000000       1.74112427
2
Properties=species:S:1:pos:R:3:forces:R:3 energy=-4.349535070324729 pbc="F F F"
Sn       0.00000000       0.00000000       0.00000000       0.00000000       0.00000000      -1.07277775
Sn       0.00000000       0.00000000       2.64909091       0.00000000       0.00000000       1.07277775
2
Properties=species:S:1:pos:R:3:forces:R:3 energy=-4.395764732332179 pbc="F F F"
Sn       0.00000000       0.00000000       0.00000000       0.00000000       0.00000000      -0.51136255
Sn       0.00000000       0.00000000       2.70787879       0.00000000       0.00000000       0.51136255
2
Properties=species:S:1:pos:R:3:forces:R:3 energy=-4.410760709611965 pbc="F F F"
Sn       0.00000000       0.00000000       0.00000000       0.00000000       0.00000000      -0.00875344
Sn       0.00000000       0.00000000       2.76666667       0.00000000       0.00000000       0.00875344
2
Properties=species:S:1:pos:R:3:forces:R:3 energy=-4.3982673776283985 pbc="F F F"
Sn       0.00000000       0.00000000       0.00000000       0.00000000       0.00000000       0.41854197
Sn       0.00000000       0.00000000       2.82545455       0.00000000       0.00000000      -0.41854197
2
Properties=species:S:1:pos:R:3:forces:R:3 energy=-4.363529472636665 pbc="F F F"
Sn       0.00000000       0.00000000       0.00000000       0.00000000       0.00000000       0.74593502
Sn       0.00000000       0.00000000       2.88424242       0.00000000       0.00000000      -0.74593502
2
Properties=species:S:1:pos:R:3:forces:R:3 energy=-4.3124902795060684 pbc="F F F"
Sn       0.00000000       0.00000000       0.00000000       0.00000000       0.00000000       0.97582287
Sn       0.00000000       0.00000000       2.94303030       0.00000000       0.00000000      -0.97582287
2
Properties=species:S:1:pos:R:3:forces:R:3 energy=-4.2502128995972575 pbc="F F F"
Sn       0.00000000       0.00000000       0.00000000       0.00000000       0.00000000       1.13339114
Sn       0.00000000       0.00000000       3.00181818       0.00000000       0.00000000      -1.13339114
2
Properties=species:S:1:pos:R:3:forces:R:3 energy=-4.180117778003391 pbc="F F F"
Sn       0.00000000       0.00000000       0.00000000       0.00000000       0.00000000       1.24512982
Sn       0.00000000       0.00000000       3.06060606       0.00000000       0.00000000      -1.24512982
2
Properties=species:S:1:pos:R:3:forces:R:3 energy=-4.104488832884178 pbc="F F F"
Sn       0.00000000       0.00000000       0.00000000       0.00000000       0.00000000       1.32229149
Sn       0.00000000       0.00000000       3.11939394       0.00000000       0.00000000      -1.32229149
2
Properties=species:S:1:pos:R:3:forces:R:3 energy=-4.025269968613591 pbc="F F F"
Sn       0.00000000       0.00000000       0.00000000       0.00000000       0.00000000       1.36772990
Sn       0.00000000       0.00000000       3.17818182       0.00000000       0.00000000      -1.36772990
2
Properties=species:S:1:pos:R:3:forces:R:3 energy=-3.9442260175990267 pbc="F F F"
Sn       0.00000000       0.00000000       0.00000000       0.00000000       0.00000000       1.38515997
Sn       0.00000000       0.00000000       3.23696970       0.00000000       0.00000000      -1.38515997
2
Properties=species:S:1:pos:R:3:forces:R:3 energy=-3.862877370323922 pbc="F F F"
Sn       0.00000000       0.00000000       0.00000000       0.00000000       0.00000000       1.37873924
Sn       0.00000000       0.00000000       3.29575758       0.00000000       0.00000000      -1.37873924
2
Properties=species:S:1:pos:R:3:forces:R:3 energy=-3.7824928200624437 pbc="F F F"
Sn       0.00000000       0.00000000       0.00000000       0.00000000       0.00000000       1.35330141
Sn       0.00000000       0.00000000       3.35454545       0.00000000       0.00000000      -1.35330141
2
Properties=species:S:1:pos:R:3:forces:R:3 energy=-3.704028181853073 pbc="F F F"
Sn       0.00000000       0.00000000       0.00000000       0.00000000       0.00000000       1.31424594
Sn       0.00000000       0.00000000       3.41333333       0.00000000       0.00000000      -1.31424594
2
Properties=species:S:1:pos:R:3:forces:R:3 energy=-3.628143423034157 pbc="F F F"
Sn       0.00000000       0.00000000       0.00000000       0.00000000       0.00000000       1.26625800
Sn       0.00000000       0.00000000       3.47212121       0.00000000       0.00000000      -1.26625800
2
Properties=species:S:1:pos:R:3:forces:R:3 energy=-3.5552511160497446 pbc="F F F"
Sn       0.00000000       0.00000000       0.00000000       0.00000000       0.00000000       1.21291912
Sn       0.00000000       0.00000000       3.53090909       0.00000000       0.00000000      -1.21291912
2
Properties=species:S:1:pos:R:3:forces:R:3 energy=-3.485592096879605 pbc="F F F"
Sn       0.00000000       0.00000000       0.00000000       0.00000000       0.00000000       1.15649891
Sn       0.00000000       0.00000000       3.58969697       0.00000000       0.00000000      -1.15649891
2
Properties=species:S:1:pos:R:3:forces:R:3 energy=-3.419314858931298 pbc="F F F"
Sn       0.00000000       0.00000000       0.00000000       0.00000000       0.00000000       1.09801280
Sn       0.00000000       0.00000000       3.64848485       0.00000000       0.00000000      -1.09801280
2
Properties=species:S:1:pos:R:3:forces:R:3 energy=-3.356520796119976 pbc="F F F"
Sn       0.00000000       0.00000000       0.00000000       0.00000000       0.00000000       1.03807306
Sn       0.00000000       0.00000000       3.70727273       0.00000000       0.00000000      -1.03807306
2
Properties=species:S:1:pos:R:3:forces:R:3 energy=-3.2972719722211496 pbc="F F F"
Sn       0.00000000       0.00000000       0.00000000       0.00000000       0.00000000       0.97766060
Sn       0.00000000       0.00000000       3.76606061       0.00000000       0.00000000      -0.97766060
2
Properties=species:S:1:pos:R:3:forces:R:3 energy=-3.2415552076921963 pbc="F F F"
Sn       0.00000000       0.00000000       0.00000000       0.00000000       0.00000000       0.91808105
Sn       0.00000000       0.00000000       3.82484848       0.00000000       0.00000000      -0.91808105
2
Properties=species:S:1:pos:R:3:forces:R:3 energy=-3.18929041984334 pbc="F F F"
Sn       0.00000000       0.00000000       0.00000000       0.00000000       0.00000000       0.86038929
Sn       0.00000000       0.00000000       3.88363636       0.00000000       0.00000000      -0.86038929
2
Properties=species:S:1:pos:R:3:forces:R:3 energy=-3.1403498130538465 pbc="F F F"
Sn       0.00000000       0.00000000       0.00000000       0.00000000       0.00000000       0.80496979
Sn       0.00000000       0.00000000       3.94242424       0.00000000       0.00000000      -0.80496979
2
Properties=species:S:1:pos:R:3:forces:R:3 energy=-3.094605335588939 pbc="F F F"
Sn       0.00000000       0.00000000       0.00000000       0.00000000       0.00000000       0.75161111
Sn       0.00000000       0.00000000       4.00121212       0.00000000       0.00000000      -0.75161111
2
Properties=species:S:1:pos:R:3:forces:R:3 energy=-3.0519462890727413 pbc="F F F"
Sn       0.00000000       0.00000000       0.00000000       0.00000000       0.00000000       0.69997072
Sn       0.00000000       0.00000000       4.06000000       0.00000000       0.00000000      -0.69997072
2
Properties=species:S:1:pos:R:3:forces:R:3 energy=-3.0122734415557795 pbc="F F F"
Sn       0.00000000       0.00000000       0.00000000       0.00000000       0.00000000       0.65003645
Sn       0.00000000       0.00000000       4.11878788       0.00000000       0.00000000      -0.65003645
2
Properties=species:S:1:pos:R:3:forces:R:3 energy=-2.975475812885857 pbc="F F F"
Sn       0.00000000       0.00000000       0.00000000       0.00000000       0.00000000       0.60226244
Sn       0.00000000       0.00000000       4.17757576       0.00000000       0.00000000      -0.60226244
2
Properties=species:S:1:pos:R:3:forces:R:3 energy=-2.941402725049404 pbc="F F F"
Sn       0.00000000       0.00000000       0.00000000       0.00000000       0.00000000       0.55742538
Sn       0.00000000       0.00000000       4.23636364       0.00000000       0.00000000      -0.55742538
2
Properties=species:S:1:pos:R:3:forces:R:3 energy=-2.90986267577093 pbc="F F F"
Sn       0.00000000       0.00000000       0.00000000       0.00000000       0.00000000       0.51634717
Sn       0.00000000       0.00000000       4.29515152       0.00000000       0.00000000      -0.51634717
2
Properties=species:S:1:pos:R:3:forces:R:3 energy=-2.8806061913822614 pbc="F F F"
Sn       0.00000000       0.00000000       0.00000000       0.00000000       0.00000000       0.47965381
Sn       0.00000000       0.00000000       4.35393939       0.00000000       0.00000000      -0.47965381
2
Properties=species:S:1:pos:R:3:forces:R:3 energy=-2.8533735802304485 pbc="F F F"
Sn       0.00000000       0.00000000       0.00000000       0.00000000       0.00000000       0.44760683
Sn       0.00000000       0.00000000       4.41272727       0.00000000       0.00000000      -0.44760683
2
Properties=species:S:1:pos:R:3:forces:R:3 energy=-2.8278920463122397 pbc="F F F"
Sn       0.00000000       0.00000000       0.00000000       0.00000000       0.00000000       0.42002591
Sn       0.00000000       0.00000000       4.47151515       0.00000000       0.00000000      -0.42002591
2
Properties=species:S:1:pos:R:3:forces:R:3 energy=-2.8039133752486904 pbc="F F F"
Sn       0.00000000       0.00000000       0.00000000       0.00000000       0.00000000       0.39631230
Sn       0.00000000       0.00000000       4.53030303       0.00000000       0.00000000      -0.39631230
2
Properties=species:S:1:pos:R:3:forces:R:3 energy=-2.781236212583067 pbc="F F F"
Sn       0.00000000       0.00000000       0.00000000       0.00000000       0.00000000       0.37556303
Sn       0.00000000       0.00000000       4.58909091       0.00000000       0.00000000      -0.37556303
2
Properties=species:S:1:pos:R:3:forces:R:3 energy=-2.759717555389978 pbc="F F F"
Sn       0.00000000       0.00000000       0.00000000       0.00000000       0.00000000       0.35680801
Sn       0.00000000       0.00000000       4.64787879       0.00000000       0.00000000      -0.35680801
2
Properties=species:S:1:pos:R:3:forces:R:3 energy=-2.739262529618789 pbc="F F F"
Sn       0.00000000       0.00000000       0.00000000       0.00000000       0.00000000       0.33924529
Sn       0.00000000       0.00000000       4.70666667       0.00000000       0.00000000      -0.33924529
2
Properties=species:S:1:pos:R:3:forces:R:3 energy=-2.7198153428589036 pbc="F F F"
Sn       0.00000000       0.00000000       0.00000000       0.00000000       0.00000000       0.32244337
Sn       0.00000000       0.00000000       4.76545455       0.00000000       0.00000000      -0.32244337
2
Properties=species:S:1:pos:R:3:forces:R:3 energy=-2.701333935942651 pbc="F F F"
Sn       0.00000000       0.00000000       0.00000000       0.00000000       0.00000000       0.30640349
Sn       0.00000000       0.00000000       4.82424242       0.00000000       0.00000000      -0.30640349
2
Properties=species:S:1:pos:R:3:forces:R:3 energy=-2.6837693585702382 pbc="F F F"
Sn       0.00000000       0.00000000       0.00000000       0.00000000       0.00000000       0.29146203
Sn       0.00000000       0.00000000       4.88303030       0.00000000       0.00000000      -0.29146203
2
Properties=species:S:1:pos:R:3:forces:R:3 energy=-2.6670380303912005 pbc="F F F"
Sn       0.00000000       0.00000000       0.00000000       0.00000000       0.00000000       0.27805334
Sn       0.00000000       0.00000000       4.94181818       0.00000000       0.00000000      -0.27805334
2
Properties=species:S:1:pos:R:3:forces:R:3 energy=-2.651040801819439 pbc="F F F"
Sn       0.00000000       0.00000000       0.00000000       0.00000000       0.00000000       0.26644373
Sn       0.00000000       0.00000000       5.00060606       0.00000000       0.00000000      -0.26644373
2
Properties=species:S:1:pos:R:3:forces:R:3 energy=-2.6356757779513407 pbc="F F F"
Sn       0.00000000       0.00000000       0.00000000       0.00000000       0.00000000       0.25648347
Sn       0.00000000       0.00000000       5.05939394       0.00000000       0.00000000      -0.25648347
2
Properties=species:S:1:pos:R:3:forces:R:3 energy=-2.6208659085966857 pbc="F F F"
Sn       0.00000000       0.00000000       0.00000000       0.00000000       0.00000000       0.24751490
Sn       0.00000000       0.00000000       5.11818182       0.00000000       0.00000000      -0.24751490
2
Properties=species:S:1:pos:R:3:forces:R:3 energy=-2.606578516427381 pbc="F F F"
Sn       0.00000000       0.00000000       0.00000000       0.00000000       0.00000000       0.23842596
Sn       0.00000000       0.00000000       5.17696970       0.00000000       0.00000000      -0.23842596
2
Properties=species:S:1:pos:R:3:forces:R:3 energy=-2.5928620435329517 pbc="F F F"
Sn       0.00000000       0.00000000       0.00000000       0.00000000       0.00000000       0.22787076
Sn       0.00000000       0.00000000       5.23575758       0.00000000       0.00000000      -0.22787076
2
Properties=species:S:1:pos:R:3:forces:R:3 energy=-2.5798407507749133 pbc="F F F"
Sn       0.00000000       0.00000000       0.00000000       0.00000000       0.00000000       0.21457937
Sn       0.00000000       0.00000000       5.29454545       0.00000000       0.00000000      -0.21457937
2
Properties=species:S:1:pos:R:3:forces:R:3 energy=-2.567702383377101 pbc="F F F"
Sn       0.00000000       0.00000000       0.00000000       0.00000000       0.00000000       0.19766653
Sn       0.00000000       0.00000000       5.35333333       0.00000000       0.00000000      -0.19766653
2
Properties=species:S:1:pos:R:3:forces:R:3 energy=-2.5566766942466175 pbc="F F F"
Sn       0.00000000       0.00000000       0.00000000       0.00000000       0.00000000       0.17688611
Sn       0.00000000       0.00000000       5.41212121       0.00000000       0.00000000      -0.17688611
2
Properties=species:S:1:pos:R:3:forces:R:3 energy=-2.5469715683854792 pbc="F F F"
Sn       0.00000000       0.00000000       0.00000000       0.00000000       0.00000000       0.15273133
Sn       0.00000000       0.00000000       5.47090909       0.00000000       0.00000000      -0.15273133
2
Properties=species:S:1:pos:R:3:forces:R:3 energy=-2.5387587732127566 pbc="F F F"
Sn       0.00000000       0.00000000       0.00000000       0.00000000       0.00000000       0.12639736
Sn       0.00000000       0.00000000       5.52969697       0.00000000       0.00000000      -0.12639736
2
Properties=species:S:1:pos:R:3:forces:R:3 energy=-2.532119633974582 pbc="F F F"
Sn       0.00000000       0.00000000       0.00000000       0.00000000       0.00000000       0.09958205
Sn       0.00000000       0.00000000       5.58848485       0.00000000       0.00000000      -0.09958205
2
Properties=species:S:1:pos:R:3:forces:R:3 energy=-2.5270259634256447 pbc="F F F"
Sn       0.00000000       0.00000000       0.00000000       0.00000000       0.00000000       0.07419705
Sn       0.00000000       0.00000000       5.64727273       0.00000000       0.00000000      -0.07419705
2
Properties=species:S:1:pos:R:3:forces:R:3 energy=-2.5233343968040916 pbc="F F F"
Sn       0.00000000       0.00000000       0.00000000       0.00000000       0.00000000       0.05202513
Sn       0.00000000       0.00000000       5.70606061       0.00000000       0.00000000      -0.05202513
2
Properties=species:S:1:pos:R:3:forces:R:3 energy=-2.5208155184959535 pbc="F F F"
Sn       0.00000000       0.00000000       0.00000000       0.00000000       0.00000000       0.03441475
Sn       0.00000000       0.00000000       5.76484848       0.00000000       0.00000000      -0.03441475
2
Properties=species:S:1:pos:R:3:forces:R:3 energy=-2.519182033441344 pbc="F F F"
Sn       0.00000000       0.00000000       0.00000000       0.00000000       0.00000000       0.02205312
Sn       0.00000000       0.00000000       5.82363636       0.00000000       0.00000000      -0.02205312
2
Properties=species:S:1:pos:R:3:forces:R:3 energy=-2.5181240491243915 pbc="F F F"
Sn       0.00000000       0.00000000       0.00000000       0.00000000       0.00000000       0.01475603
Sn       0.00000000       0.00000000       5.88242424       0.00000000       0.00000000      -0.01475603
2
Properties=species:S:1:pos:R:3:forces:R:3 energy=-2.517368766541166 pbc="F F F"
Sn       0.00000000       0.00000000       0.00000000       0.00000000       0.00000000       0.01149426
Sn       0.00000000       0.00000000       5.94121212       0.00000000       0.00000000      -0.01149426
2
Properties=species:S:1:pos:R:3:forces:R:3 energy=-2.5167276664874976 pbc="F F F"
Sn       0.00000000       0.00000000       0.00000000       0.00000000       0.00000000       0.01052490
Sn       0.00000000       0.00000000       6.00000000       0.00000000       0.00000000      -0.01052490
