2
Properties=species:S:1:pos:R:3:forces:R:3 energy=-10163421.111394413 pbc="F F F"
Tb       0.00000000       0.00000000       0.00000000       0.00000000       0.00000000 105853616.00000000
Tb       0.00000000       0.00000000       0.18000000       0.00000000       0.00000000 -105853616.00000000
2
Properties=species:S:1:pos:R:3:forces:R:3 energy=-4874006.611394413 pbc="F F F"
Tb       0.00000000       0.00000000       0.00000000       0.00000000       0.00000000 71920776.00000000
Tb       0.00000000       0.00000000       0.23878788       0.00000000       0.00000000 -71920776.00000000
2
Properties=species:S:1:pos:R:3:forces:R:3 energy=-1744351.361394413 pbc="F F F"
Tb       0.00000000       0.00000000       0.00000000       0.00000000       0.00000000 35868648.00000000
Tb       0.00000000       0.00000000       0.29757576       0.00000000       0.00000000 -35868648.00000000
2
Properties=species:S:1:pos:R:3:forces:R:3 energy=-402770.4551444131 pbc="F F F"
Tb       0.00000000       0.00000000       0.00000000       0.00000000       0.00000000 12058109.00000000
Tb       0.00000000       0.00000000       0.35636364       0.00000000       0.00000000 -12058109.00000000
2
Properties=species:S:1:pos:R:3:forces:R:3 energy=-43563.197331913085 pbc="F F F"
Tb       0.00000000       0.00000000       0.00000000       0.00000000       0.00000000 2349196.25000000
Tb       0.00000000       0.00000000       0.41515152       0.00000000       0.00000000 -2349196.25000000
2
Properties=species:S:1:pos:R:3:forces:R:3 energy=-117.55474615868947 pbc="F F F"
Tb       0.00000000       0.00000000       0.00000000       0.00000000       0.00000000    1318.79418945
Tb       0.00000000       0.00000000       0.47393939       0.00000000       0.00000000   -1318.79418945
2
Properties=species:S:1:pos:R:3:forces:R:3 energy=-52.39487598564181 pbc="F F F"
Tb       0.00000000       0.00000000       0.00000000       0.00000000       0.00000000     892.63665771
Tb       0.00000000       0.00000000       0.53272727       0.00000000       0.00000000    -892.63665771
2
Properties=species:S:1:pos:R:3:forces:R:3 energy=208.0939889383824 pbc="F F F"
Tb       0.00000000       0.00000000       0.00000000       0.00000000       0.00000000    9154.16406250
Tb       0.00000000       0.00000000       0.59151515       0.00000000       0.00000000   -9154.16406250
2
Properties=species:S:1:pos:R:3:forces:R:3 energy=410.4780221795213 pbc="F F F"
Tb       0.00000000       0.00000000       0.00000000       0.00000000       0.00000000    -338.20068359
Tb       0.00000000       0.00000000       0.65030303       0.00000000       0.00000000     338.20068359
2
Properties=species:S:1:pos:R:3:forces:R:3 energy=388.64943946653455 pbc="F F F"
Tb       0.00000000       0.00000000       0.00000000       0.00000000       0.00000000    -621.92004395
Tb       0.00000000       0.00000000       0.70909091       0.00000000       0.00000000     621.92004395
2
Properties=species:S:1:pos:R:3:forces:R:3 energy=305.6908519087492 pbc="F F F"
Tb       0.00000000       0.00000000       0.00000000       0.00000000       0.00000000   -1306.55786133
Tb       0.00000000       0.00000000       0.76787879       0.00000000       0.00000000    1306.55786133
2
Properties=species:S:1:pos:R:3:forces:R:3 energy=317.26967895243024 pbc="F F F"
Tb       0.00000000       0.00000000       0.00000000       0.00000000       0.00000000     140.40541077
Tb       0.00000000       0.00000000       0.82666667       0.00000000       0.00000000    -140.40541077
2
Properties=species:S:1:pos:R:3:forces:R:3 energy=293.60106953603025 pbc="F F F"
Tb       0.00000000       0.00000000       0.00000000       0.00000000       0.00000000    -632.97943115
Tb       0.00000000       0.00000000       0.88545455       0.00000000       0.00000000     632.97943115
2
Properties=species:S:1:pos:R:3:forces:R:3 energy=242.67068039783044 pbc="F F F"
Tb       0.00000000       0.00000000       0.00000000       0.00000000       0.00000000   -1029.59448242
Tb       0.00000000       0.00000000       0.94424242       0.00000000       0.00000000    1029.59448242
2
Properties=species:S:1:pos:R:3:forces:R:3 energy=181.08839012855503 pbc="F F F"
Tb       0.00000000       0.00000000       0.00000000       0.00000000       0.00000000   -1015.97143555
Tb       0.00000000       0.00000000       1.00303030       0.00000000       0.00000000    1015.97143555
2
Properties=species:S:1:pos:R:3:forces:R:3 energy=132.1218378883603 pbc="F F F"
Tb       0.00000000       0.00000000       0.00000000       0.00000000       0.00000000    -684.66235352
Tb       0.00000000       0.00000000       1.06181818       0.00000000       0.00000000     684.66235352
2
Properties=species:S:1:pos:R:3:forces:R:3 energy=96.23535633384033 pbc="F F F"
Tb       0.00000000       0.00000000       0.00000000       0.00000000       0.00000000    -516.97387695
Tb       0.00000000       0.00000000       1.12060606       0.00000000       0.00000000     516.97387695
2
Properties=species:S:1:pos:R:3:forces:R:3 energy=71.40453903188971 pbc="F F F"
Tb       0.00000000       0.00000000       0.00000000       0.00000000       0.00000000    -326.72241211
Tb       0.00000000       0.00000000       1.17939394       0.00000000       0.00000000     326.72241211
2
Properties=species:S:1:pos:R:3:forces:R:3 energy=55.71018134662209 pbc="F F F"
Tb       0.00000000       0.00000000       0.00000000       0.00000000       0.00000000    -216.06738281
Tb       0.00000000       0.00000000       1.23818182       0.00000000       0.00000000     216.06738281
2
Properties=species:S:1:pos:R:3:forces:R:3 energy=44.90201629991403 pbc="F F F"
Tb       0.00000000       0.00000000       0.00000000       0.00000000       0.00000000    -159.67185974
Tb       0.00000000       0.00000000       1.29696970       0.00000000       0.00000000     159.67185974
2
Properties=species:S:1:pos:R:3:forces:R:3 energy=36.666014261518455 pbc="F F F"
Tb       0.00000000       0.00000000       0.00000000       0.00000000       0.00000000    -124.25601196
Tb       0.00000000       0.00000000       1.35575758       0.00000000       0.00000000     124.25601196
2
Properties=species:S:1:pos:R:3:forces:R:3 energy=29.765713680730087 pbc="F F F"
Tb       0.00000000       0.00000000       0.00000000       0.00000000       0.00000000    -110.51610565
Tb       0.00000000       0.00000000       1.41454545       0.00000000       0.00000000     110.51610565
2
Properties=species:S:1:pos:R:3:forces:R:3 energy=23.911560050300682 pbc="F F F"
Tb       0.00000000       0.00000000       0.00000000       0.00000000       0.00000000     -86.39710236
Tb       0.00000000       0.00000000       1.47333333       0.00000000       0.00000000      86.39710236
2
Properties=species:S:1:pos:R:3:forces:R:3 energy=19.61587495643981 pbc="F F F"
Tb       0.00000000       0.00000000       0.00000000       0.00000000       0.00000000     -62.10161209
Tb       0.00000000       0.00000000       1.53212121       0.00000000       0.00000000      62.10161209
2
Properties=species:S:1:pos:R:3:forces:R:3 energy=16.37941379790508 pbc="F F F"
Tb       0.00000000       0.00000000       0.00000000       0.00000000       0.00000000     -49.66883469
Tb       0.00000000       0.00000000       1.59090909       0.00000000       0.00000000      49.66883469
2
Properties=species:S:1:pos:R:3:forces:R:3 energy=13.705042556086624 pbc="F F F"
Tb       0.00000000       0.00000000       0.00000000       0.00000000       0.00000000     -40.58579254
Tb       0.00000000       0.00000000       1.64969697       0.00000000       0.00000000      40.58579254
2
Properties=species:S:1:pos:R:3:forces:R:3 energy=11.493890113946936 pbc="F F F"
Tb       0.00000000       0.00000000       0.00000000       0.00000000       0.00000000     -35.58488083
Tb       0.00000000       0.00000000       1.70848485       0.00000000       0.00000000      35.58488083
2
Properties=species:S:1:pos:R:3:forces:R:3 energy=9.568850783272437 pbc="F F F"
Tb       0.00000000       0.00000000       0.00000000       0.00000000       0.00000000     -29.74020386
Tb       0.00000000       0.00000000       1.76727273       0.00000000       0.00000000      29.74020386
2
Properties=species:S:1:pos:R:3:forces:R:3 energy=7.958687546172686 pbc="F F F"
Tb       0.00000000       0.00000000       0.00000000       0.00000000       0.00000000     -25.01263237
Tb       0.00000000       0.00000000       1.82606061       0.00000000       0.00000000      25.01263237
2
Properties=species:S:1:pos:R:3:forces:R:3 energy=6.595838565473263 pbc="F F F"
Tb       0.00000000       0.00000000       0.00000000       0.00000000       0.00000000     -21.64772415
Tb       0.00000000       0.00000000       1.88484848       0.00000000       0.00000000      21.64772415
2
Properties=species:S:1:pos:R:3:forces:R:3 energy=5.382874781073379 pbc="F F F"
Tb       0.00000000       0.00000000       0.00000000       0.00000000       0.00000000     -19.73195267
Tb       0.00000000       0.00000000       1.94363636       0.00000000       0.00000000      19.73195267
2
Properties=species:S:1:pos:R:3:forces:R:3 energy=4.276215488172825 pbc="F F F"
Tb       0.00000000       0.00000000       0.00000000       0.00000000       0.00000000     -17.84428406
Tb       0.00000000       0.00000000       2.00242424       0.00000000       0.00000000      17.84428406
2
Properties=species:S:1:pos:R:3:forces:R:3 energy=3.2849533471577237 pbc="F F F"
Tb       0.00000000       0.00000000       0.00000000       0.00000000       0.00000000     -15.89798355
Tb       0.00000000       0.00000000       2.06121212       0.00000000       0.00000000      15.89798355
2
Properties=species:S:1:pos:R:3:forces:R:3 energy=2.4176297819880226 pbc="F F F"
Tb       0.00000000       0.00000000       0.00000000       0.00000000       0.00000000     -13.49905205
Tb       0.00000000       0.00000000       2.12000000       0.00000000       0.00000000      13.49905205
2
Properties=species:S:1:pos:R:3:forces:R:3 energy=1.6917775721203476 pbc="F F F"
Tb       0.00000000       0.00000000       0.00000000       0.00000000       0.00000000     -11.36699963
Tb       0.00000000       0.00000000       2.17878788       0.00000000       0.00000000      11.36699963
2
Properties=species:S:1:pos:R:3:forces:R:3 energy=1.0698872048230423 pbc="F F F"
Tb       0.00000000       0.00000000       0.00000000       0.00000000       0.00000000      -9.80143452
Tb       0.00000000       0.00000000       2.23757576       0.00000000       0.00000000       9.80143452
2
Properties=species:S:1:pos:R:3:forces:R:3 energy=0.536215905989839 pbc="F F F"
Tb       0.00000000       0.00000000       0.00000000       0.00000000       0.00000000      -8.38504124
Tb       0.00000000       0.00000000       2.29636364       0.00000000       0.00000000       8.38504124
2
Properties=species:S:1:pos:R:3:forces:R:3 energy=0.0817853641258938 pbc="F F F"
Tb       0.00000000       0.00000000       0.00000000       0.00000000       0.00000000      -7.10933542
Tb       0.00000000       0.00000000       2.35515152       0.00000000       0.00000000       7.10933542
2
Properties=species:S:1:pos:R:3:forces:R:3 energy=-0.3058702938961579 pbc="F F F"
Tb       0.00000000       0.00000000       0.00000000       0.00000000       0.00000000      -6.12151718
Tb       0.00000000       0.00000000       2.41393939       0.00000000       0.00000000       6.12151718
2
Properties=species:S:1:pos:R:3:forces:R:3 energy=-0.6406368735617892 pbc="F F F"
Tb       0.00000000       0.00000000       0.00000000       0.00000000       0.00000000      -5.28019476
Tb       0.00000000       0.00000000       2.47272727       0.00000000       0.00000000       5.28019476
2
Properties=species:S:1:pos:R:3:forces:R:3 energy=-0.9273993514730768 pbc="F F F"
Tb       0.00000000       0.00000000       0.00000000       0.00000000       0.00000000      -4.48251009
Tb       0.00000000       0.00000000       2.53151515       0.00000000       0.00000000       4.48251009
2
Properties=species:S:1:pos:R:3:forces:R:3 energy=-1.1705744374714535 pbc="F F F"
Tb       0.00000000       0.00000000       0.00000000       0.00000000       0.00000000      -3.83023143
Tb       0.00000000       0.00000000       2.59030303       0.00000000       0.00000000       3.83023143
2
Properties=species:S:1:pos:R:3:forces:R:3 energy=-1.3819954271728685 pbc="F F F"
Tb       0.00000000       0.00000000       0.00000000       0.00000000       0.00000000      -3.38613367
Tb       0.00000000       0.00000000       2.64909091       0.00000000       0.00000000       3.38613367
2
Properties=species:S:1:pos:R:3:forces:R:3 energy=-1.5697266952948339 pbc="F F F"
Tb       0.00000000       0.00000000       0.00000000       0.00000000       0.00000000      -2.99762559
Tb       0.00000000       0.00000000       2.70787879       0.00000000       0.00000000       2.99762559
2
Properties=species:S:1:pos:R:3:forces:R:3 energy=-1.7336069981778177 pbc="F F F"
Tb       0.00000000       0.00000000       0.00000000       0.00000000       0.00000000      -2.57123828
Tb       0.00000000       0.00000000       2.76666667       0.00000000       0.00000000       2.57123828
2
Properties=species:S:1:pos:R:3:forces:R:3 energy=-1.8718348483658003 pbc="F F F"
Tb       0.00000000       0.00000000       0.00000000       0.00000000       0.00000000      -2.13452673
Tb       0.00000000       0.00000000       2.82545455       0.00000000       0.00000000       2.13452673
2
Properties=species:S:1:pos:R:3:forces:R:3 energy=-1.9853903983005248 pbc="F F F"
Tb       0.00000000       0.00000000       0.00000000       0.00000000       0.00000000      -1.73801851
Tb       0.00000000       0.00000000       2.88424242       0.00000000       0.00000000       1.73801851
2
Properties=species:S:1:pos:R:3:forces:R:3 energy=-2.0773681090544955 pbc="F F F"
Tb       0.00000000       0.00000000       0.00000000       0.00000000       0.00000000      -1.40095532
Tb       0.00000000       0.00000000       2.94303030       0.00000000       0.00000000       1.40095532
2
Properties=species:S:1:pos:R:3:forces:R:3 energy=-2.151071195005201 pbc="F F F"
Tb       0.00000000       0.00000000       0.00000000       0.00000000       0.00000000      -1.11292565
Tb       0.00000000       0.00000000       3.00181818       0.00000000       0.00000000       1.11292565
2
Properties=species:S:1:pos:R:3:forces:R:3 energy=-2.2088443138005434 pbc="F F F"
Tb       0.00000000       0.00000000       0.00000000       0.00000000       0.00000000      -0.85727817
Tb       0.00000000       0.00000000       3.06060606       0.00000000       0.00000000       0.85727817
2
Properties=species:S:1:pos:R:3:forces:R:3 energy=-2.2524836970000495 pbc="F F F"
Tb       0.00000000       0.00000000       0.00000000       0.00000000       0.00000000      -0.63333416
Tb       0.00000000       0.00000000       3.11939394       0.00000000       0.00000000       0.63333416
2
Properties=species:S:1:pos:R:3:forces:R:3 energy=-2.2840781767803424 pbc="F F F"
Tb       0.00000000       0.00000000       0.00000000       0.00000000       0.00000000      -0.44839939
Tb       0.00000000       0.00000000       3.17818182       0.00000000       0.00000000       0.44839939
2
Properties=species:S:1:pos:R:3:forces:R:3 energy=-2.305970288028786 pbc="F F F"
Tb       0.00000000       0.00000000       0.00000000       0.00000000       0.00000000      -0.30224454
Tb       0.00000000       0.00000000       3.23696970       0.00000000       0.00000000       0.30224454
2
Properties=species:S:1:pos:R:3:forces:R:3 energy=-2.320191465064978 pbc="F F F"
Tb       0.00000000       0.00000000       0.00000000       0.00000000       0.00000000      -0.18561670
Tb       0.00000000       0.00000000       3.29575758       0.00000000       0.00000000       0.18561670
2
Properties=species:S:1:pos:R:3:forces:R:3 energy=-2.3281579335754143 pbc="F F F"
Tb       0.00000000       0.00000000       0.00000000       0.00000000       0.00000000      -0.08783592
Tb       0.00000000       0.00000000       3.35454545       0.00000000       0.00000000       0.08783592
2
Properties=species:S:1:pos:R:3:forces:R:3 energy=-2.330775614788294 pbc="F F F"
Tb       0.00000000       0.00000000       0.00000000       0.00000000       0.00000000      -0.00308074
Tb       0.00000000       0.00000000       3.41333333       0.00000000       0.00000000       0.00308074
2
Properties=species:S:1:pos:R:3:forces:R:3 energy=-2.3287176320283027 pbc="F F F"
Tb       0.00000000       0.00000000       0.00000000       0.00000000       0.00000000       0.07174749
Tb       0.00000000       0.00000000       3.47212121       0.00000000       0.00000000      -0.07174749
2
Properties=species:S:1:pos:R:3:forces:R:3 energy=-2.322458604978141 pbc="F F F"
Tb       0.00000000       0.00000000       0.00000000       0.00000000       0.00000000       0.14042915
Tb       0.00000000       0.00000000       3.53090909       0.00000000       0.00000000      -0.14042915
2
Properties=species:S:1:pos:R:3:forces:R:3 energy=-2.3122652776621084 pbc="F F F"
Tb       0.00000000       0.00000000       0.00000000       0.00000000       0.00000000       0.20599131
Tb       0.00000000       0.00000000       3.58969697       0.00000000       0.00000000      -0.20599131
2
Properties=species:S:1:pos:R:3:forces:R:3 energy=-2.2982917845074375 pbc="F F F"
Tb       0.00000000       0.00000000       0.00000000       0.00000000       0.00000000       0.26876760
Tb       0.00000000       0.00000000       3.64848485       0.00000000       0.00000000      -0.26876760
2
Properties=species:S:1:pos:R:3:forces:R:3 energy=-2.2807474590101156 pbc="F F F"
Tb       0.00000000       0.00000000       0.00000000       0.00000000       0.00000000       0.32722002
Tb       0.00000000       0.00000000       3.70727273       0.00000000       0.00000000      -0.32722002
2
Properties=species:S:1:pos:R:3:forces:R:3 energy=-2.2599351200917144 pbc="F F F"
Tb       0.00000000       0.00000000       0.00000000       0.00000000       0.00000000       0.37978134
Tb       0.00000000       0.00000000       3.76606061       0.00000000       0.00000000      -0.37978134
2
Properties=species:S:1:pos:R:3:forces:R:3 energy=-2.236228031860334 pbc="F F F"
Tb       0.00000000       0.00000000       0.00000000       0.00000000       0.00000000       0.42571121
Tb       0.00000000       0.00000000       3.82484848       0.00000000       0.00000000      -0.42571121
2
Properties=species:S:1:pos:R:3:forces:R:3 energy=-2.21001473622007 pbc="F F F"
Tb       0.00000000       0.00000000       0.00000000       0.00000000       0.00000000       0.46492609
Tb       0.00000000       0.00000000       3.88363636       0.00000000       0.00000000      -0.46492609
2
Properties=species:S:1:pos:R:3:forces:R:3 energy=-2.1816904001100785 pbc="F F F"
Tb       0.00000000       0.00000000       0.00000000       0.00000000       0.00000000       0.49761546
Tb       0.00000000       0.00000000       3.94242424       0.00000000       0.00000000      -0.49761546
2
Properties=species:S:1:pos:R:3:forces:R:3 energy=-2.1516301949870917 pbc="F F F"
Tb       0.00000000       0.00000000       0.00000000       0.00000000       0.00000000       0.52410048
Tb       0.00000000       0.00000000       4.00121212       0.00000000       0.00000000      -0.52410048
2
Properties=species:S:1:pos:R:3:forces:R:3 energy=-2.1201807327635054 pbc="F F F"
Tb       0.00000000       0.00000000       0.00000000       0.00000000       0.00000000       0.54490888
Tb       0.00000000       0.00000000       4.06000000       0.00000000       0.00000000      -0.54490888
2
Properties=species:S:1:pos:R:3:forces:R:3 energy=-2.087660987803471 pbc="F F F"
Tb       0.00000000       0.00000000       0.00000000       0.00000000       0.00000000       0.56075406
Tb       0.00000000       0.00000000       4.11878788       0.00000000       0.00000000      -0.56075406
2
Properties=species:S:1:pos:R:3:forces:R:3 energy=-2.05433379439936 pbc="F F F"
Tb       0.00000000       0.00000000       0.00000000       0.00000000       0.00000000       0.57231659
Tb       0.00000000       0.00000000       4.17757576       0.00000000       0.00000000      -0.57231659
2
Properties=species:S:1:pos:R:3:forces:R:3 energy=-2.020442092731426 pbc="F F F"
Tb       0.00000000       0.00000000       0.00000000       0.00000000       0.00000000       0.58000088
Tb       0.00000000       0.00000000       4.23636364       0.00000000       0.00000000      -0.58000088
2
Properties=species:S:1:pos:R:3:forces:R:3 energy=-1.9862137099106834 pbc="F F F"
Tb       0.00000000       0.00000000       0.00000000       0.00000000       0.00000000       0.58384717
Tb       0.00000000       0.00000000       4.29515152       0.00000000       0.00000000      -0.58384717
2
Properties=species:S:1:pos:R:3:forces:R:3 energy=-1.951876688460049 pbc="F F F"
Tb       0.00000000       0.00000000       0.00000000       0.00000000       0.00000000       0.58366722
Tb       0.00000000       0.00000000       4.35393939       0.00000000       0.00000000      -0.58366722
2
Properties=species:S:1:pos:R:3:forces:R:3 energy=-1.917671696751749 pbc="F F F"
Tb       0.00000000       0.00000000       0.00000000       0.00000000       0.00000000       0.57926035
Tb       0.00000000       0.00000000       4.41272727       0.00000000       0.00000000      -0.57926035
2
Properties=species:S:1:pos:R:3:forces:R:3 energy=-1.8838530523737216 pbc="F F F"
Tb       0.00000000       0.00000000       0.00000000       0.00000000       0.00000000       0.57060015
Tb       0.00000000       0.00000000       4.47151515       0.00000000       0.00000000      -0.57060015
2
Properties=species:S:1:pos:R:3:forces:R:3 energy=-1.8506620319200449 pbc="F F F"
Tb       0.00000000       0.00000000       0.00000000       0.00000000       0.00000000       0.55789888
Tb       0.00000000       0.00000000       4.53030303       0.00000000       0.00000000      -0.55789888
2
Properties=species:S:1:pos:R:3:forces:R:3 energy=-1.81832883536037 pbc="F F F"
Tb       0.00000000       0.00000000       0.00000000       0.00000000       0.00000000       0.54157013
Tb       0.00000000       0.00000000       4.58909091       0.00000000       0.00000000      -0.54157013
2
Properties=species:S:1:pos:R:3:forces:R:3 energy=-1.7870459275085702 pbc="F F F"
Tb       0.00000000       0.00000000       0.00000000       0.00000000       0.00000000       0.52223247
Tb       0.00000000       0.00000000       4.64787879       0.00000000       0.00000000      -0.52223247
2
Properties=species:S:1:pos:R:3:forces:R:3 energy=-1.7569709053813363 pbc="F F F"
Tb       0.00000000       0.00000000       0.00000000       0.00000000       0.00000000       0.50065702
Tb       0.00000000       0.00000000       4.70666667       0.00000000       0.00000000      -0.50065702
2
Properties=species:S:1:pos:R:3:forces:R:3 energy=-1.7282046143740517 pbc="F F F"
Tb       0.00000000       0.00000000       0.00000000       0.00000000       0.00000000       0.47777653
Tb       0.00000000       0.00000000       4.76545455       0.00000000       0.00000000      -0.47777653
2
Properties=species:S:1:pos:R:3:forces:R:3 energy=-1.7007978873374519 pbc="F F F"
Tb       0.00000000       0.00000000       0.00000000       0.00000000       0.00000000       0.45462659
Tb       0.00000000       0.00000000       4.82424242       0.00000000       0.00000000      -0.45462659
2
Properties=species:S:1:pos:R:3:forces:R:3 energy=-1.6747381614589718 pbc="F F F"
Tb       0.00000000       0.00000000       0.00000000       0.00000000       0.00000000       0.43223542
Tb       0.00000000       0.00000000       4.88303030       0.00000000       0.00000000      -0.43223542
2
Properties=species:S:1:pos:R:3:forces:R:3 energy=-1.649947583585403 pbc="F F F"
Tb       0.00000000       0.00000000       0.00000000       0.00000000       0.00000000       0.41141739
Tb       0.00000000       0.00000000       4.94181818       0.00000000       0.00000000      -0.41141739
2
Properties=species:S:1:pos:R:3:forces:R:3 energy=-1.6263268729058027 pbc="F F F"
Tb       0.00000000       0.00000000       0.00000000       0.00000000       0.00000000       0.39257154
Tb       0.00000000       0.00000000       5.00060606       0.00000000       0.00000000      -0.39257154
2
Properties=species:S:1:pos:R:3:forces:R:3 energy=-1.6037525803057873 pbc="F F F"
Tb       0.00000000       0.00000000       0.00000000       0.00000000       0.00000000       0.37553149
Tb       0.00000000       0.00000000       5.05939394       0.00000000       0.00000000      -0.37553149
2
Properties=species:S:1:pos:R:3:forces:R:3 energy=-1.582151246881017 pbc="F F F"
Tb       0.00000000       0.00000000       0.00000000       0.00000000       0.00000000       0.35952419
Tb       0.00000000       0.00000000       5.11818182       0.00000000       0.00000000      -0.35952419
2
Properties=species:S:1:pos:R:3:forces:R:3 energy=-1.5614909412455893 pbc="F F F"
Tb       0.00000000       0.00000000       0.00000000       0.00000000       0.00000000       0.34326494
Tb       0.00000000       0.00000000       5.17696970       0.00000000       0.00000000      -0.34326494
2
Properties=species:S:1:pos:R:3:forces:R:3 energy=-1.5418270042210058 pbc="F F F"
Tb       0.00000000       0.00000000       0.00000000       0.00000000       0.00000000       0.32527354
Tb       0.00000000       0.00000000       5.23575758       0.00000000       0.00000000      -0.32527354
2
Properties=species:S:1:pos:R:3:forces:R:3 energy=-1.5233066524810024 pbc="F F F"
Tb       0.00000000       0.00000000       0.00000000       0.00000000       0.00000000       0.30417648
Tb       0.00000000       0.00000000       5.29454545       0.00000000       0.00000000      -0.30417648
2
Properties=species:S:1:pos:R:3:forces:R:3 energy=-1.5061442590470535 pbc="F F F"
Tb       0.00000000       0.00000000       0.00000000       0.00000000       0.00000000       0.27905512
Tb       0.00000000       0.00000000       5.35333333       0.00000000       0.00000000      -0.27905512
2
Properties=species:S:1:pos:R:3:forces:R:3 energy=-1.490577351221288 pbc="F F F"
Tb       0.00000000       0.00000000       0.00000000       0.00000000       0.00000000       0.24973185
Tb       0.00000000       0.00000000       5.41212121       0.00000000       0.00000000      -0.24973185
2
Properties=species:S:1:pos:R:3:forces:R:3 energy=-1.4768502967528017 pbc="F F F"
Tb       0.00000000       0.00000000       0.00000000       0.00000000       0.00000000       0.21686047
Tb       0.00000000       0.00000000       5.47090909       0.00000000       0.00000000      -0.21686047
2
Properties=species:S:1:pos:R:3:forces:R:3 energy=-1.4651227637745696 pbc="F F F"
Tb       0.00000000       0.00000000       0.00000000       0.00000000       0.00000000       0.18188323
Tb       0.00000000       0.00000000       5.52969697       0.00000000       0.00000000      -0.18188323
2
Properties=species:S:1:pos:R:3:forces:R:3 energy=-1.4554667394032568 pbc="F F F"
Tb       0.00000000       0.00000000       0.00000000       0.00000000       0.00000000       0.14682741
Tb       0.00000000       0.00000000       5.58848485       0.00000000       0.00000000      -0.14682741
2
Properties=species:S:1:pos:R:3:forces:R:3 energy=-1.447817790978772 pbc="F F F"
Tb       0.00000000       0.00000000       0.00000000       0.00000000       0.00000000       0.11399354
Tb       0.00000000       0.00000000       5.64727273       0.00000000       0.00000000      -0.11399354
2
Properties=species:S:1:pos:R:3:forces:R:3 energy=-1.4419788047338016 pbc="F F F"
Tb       0.00000000       0.00000000       0.00000000       0.00000000       0.00000000       0.08550136
Tb       0.00000000       0.00000000       5.70606061       0.00000000       0.00000000      -0.08550136
2
Properties=species:S:1:pos:R:3:forces:R:3 energy=-1.4376438466586532 pbc="F F F"
Tb       0.00000000       0.00000000       0.00000000       0.00000000       0.00000000       0.06298207
Tb       0.00000000       0.00000000       5.76484848       0.00000000       0.00000000      -0.06298207
2
Properties=species:S:1:pos:R:3:forces:R:3 energy=-1.4344370984214765 pbc="F F F"
Tb       0.00000000       0.00000000       0.00000000       0.00000000       0.00000000       0.04726496
Tb       0.00000000       0.00000000       5.82363636       0.00000000       0.00000000      -0.04726496
2
Properties=species:S:1:pos:R:3:forces:R:3 energy=-1.4319614377376007 pbc="F F F"
Tb       0.00000000       0.00000000       0.00000000       0.00000000       0.00000000       0.03807984
Tb       0.00000000       0.00000000       5.88242424       0.00000000       0.00000000      -0.03807984
2
Properties=species:S:1:pos:R:3:forces:R:3 energy=-1.4298604873887222 pbc="F F F"
Tb       0.00000000       0.00000000       0.00000000       0.00000000       0.00000000       0.03407975
Tb       0.00000000       0.00000000       5.94121212       0.00000000       0.00000000      -0.03407975
2
Properties=species:S:1:pos:R:3:forces:R:3 energy=-1.427895669605383 pbc="F F F"
Tb       0.00000000       0.00000000       0.00000000       0.00000000       0.00000000       0.03298599
Tb       0.00000000       0.00000000       6.00000000       0.00000000       0.00000000      -0.03298599
