2
Properties=species:S:1:pos:R:3:forces:R:3 energy=256079423.92251268 pbc="F F F"
Tc       0.00000000       0.00000000       0.00000000       0.00000000       0.00000000 -2253893632.00000000
Tc       0.00000000       0.00000000       0.18000000       0.00000000       0.00000000 2253893632.00000000
2
Properties=species:S:1:pos:R:3:forces:R:3 energy=139649983.92251268 pbc="F F F"
Tc       0.00000000       0.00000000       0.00000000       0.00000000       0.00000000 -1653292928.00000000
Tc       0.00000000       0.00000000       0.23878788       0.00000000       0.00000000 1653292928.00000000
2
Properties=species:S:1:pos:R:3:forces:R:3 energy=63567291.92251267 pbc="F F F"
Tc       0.00000000       0.00000000       0.00000000       0.00000000       0.00000000 -949955520.00000000
Tc       0.00000000       0.00000000       0.29757576       0.00000000       0.00000000 949955520.00000000
2
Properties=species:S:1:pos:R:3:forces:R:3 energy=24142287.92251268 pbc="F F F"
Tc       0.00000000       0.00000000       0.00000000       0.00000000       0.00000000 -432114688.00000000
Tc       0.00000000       0.00000000       0.35636364       0.00000000       0.00000000 432114688.00000000
2
Properties=species:S:1:pos:R:3:forces:R:3 energy=7746043.422512688 pbc="F F F"
Tc       0.00000000       0.00000000       0.00000000       0.00000000       0.00000000 -162774240.00000000
Tc       0.00000000       0.00000000       0.41515152       0.00000000       0.00000000 162774240.00000000
2
Properties=species:S:1:pos:R:3:forces:R:3 energy=2059921.9225127134 pbc="F F F"
Tc       0.00000000       0.00000000       0.00000000       0.00000000       0.00000000 -47664516.00000000
Tc       0.00000000       0.00000000       0.47393939       0.00000000       0.00000000 47664516.00000000
2
Properties=species:S:1:pos:R:3:forces:R:3 energy=486866.6412627514 pbc="F F F"
Tc       0.00000000       0.00000000       0.00000000       0.00000000       0.00000000 -12838536.00000000
Tc       0.00000000       0.00000000       0.53272727       0.00000000       0.00000000 12838536.00000000
2
Properties=species:S:1:pos:R:3:forces:R:3 energy=96291.08657532744 pbc="F F F"
Tc       0.00000000       0.00000000       0.00000000       0.00000000       0.00000000 -2636091.25000000
Tc       0.00000000       0.00000000       0.59151515       0.00000000       0.00000000 2636091.25000000
2
Properties=species:S:1:pos:R:3:forces:R:3 energy=18265.00259106015 pbc="F F F"
Tc       0.00000000       0.00000000       0.00000000       0.00000000       0.00000000 -540589.12500000
Tc       0.00000000       0.00000000       0.65030303       0.00000000       0.00000000  540589.12500000
2
Properties=species:S:1:pos:R:3:forces:R:3 energy=3826.7987338220078 pbc="F F F"
Tc       0.00000000       0.00000000       0.00000000       0.00000000       0.00000000 -101899.21093750
Tc       0.00000000       0.00000000       0.70909091       0.00000000       0.00000000  101899.21093750
2
Properties=species:S:1:pos:R:3:forces:R:3 energy=857.7137731569403 pbc="F F F"
Tc       0.00000000       0.00000000       0.00000000       0.00000000       0.00000000  -19529.10351562
Tc       0.00000000       0.00000000       0.76787879       0.00000000       0.00000000   19529.10351562
2
Properties=species:S:1:pos:R:3:forces:R:3 energy=272.0655191615547 pbc="F F F"
Tc       0.00000000       0.00000000       0.00000000       0.00000000       0.00000000   -4524.42382812
Tc       0.00000000       0.00000000       0.82666667       0.00000000       0.00000000    4524.42382812
2
Properties=species:S:1:pos:R:3:forces:R:3 energy=109.39903109697302 pbc="F F F"
Tc       0.00000000       0.00000000       0.00000000       0.00000000       0.00000000   -1392.94018555
Tc       0.00000000       0.00000000       0.88545455       0.00000000       0.00000000    1392.94018555
2
Properties=species:S:1:pos:R:3:forces:R:3 energy=52.13053062619721 pbc="F F F"
Tc       0.00000000       0.00000000       0.00000000       0.00000000       0.00000000    -704.71136475
Tc       0.00000000       0.00000000       0.94424242       0.00000000       0.00000000     704.71136475
2
Properties=species:S:1:pos:R:3:forces:R:3 energy=23.520229776170705 pbc="F F F"
Tc       0.00000000       0.00000000       0.00000000       0.00000000       0.00000000    -317.16390991
Tc       0.00000000       0.00000000       1.00303030       0.00000000       0.00000000     317.16390991
2
Properties=species:S:1:pos:R:3:forces:R:3 energy=11.21884921289907 pbc="F F F"
Tc       0.00000000       0.00000000       0.00000000       0.00000000       0.00000000    -124.42933655
Tc       0.00000000       0.00000000       1.06181818       0.00000000       0.00000000     124.42933655
2
Properties=species:S:1:pos:R:3:forces:R:3 energy=6.587486392574971 pbc="F F F"
Tc       0.00000000       0.00000000       0.00000000       0.00000000       0.00000000     -46.94260788
Tc       0.00000000       0.00000000       1.12060606       0.00000000       0.00000000      46.94260788
2
Properties=species:S:1:pos:R:3:forces:R:3 energy=4.005114442777804 pbc="F F F"
Tc       0.00000000       0.00000000       0.00000000       0.00000000       0.00000000     -46.51664734
Tc       0.00000000       0.00000000       1.17939394       0.00000000       0.00000000      46.51664734
2
Properties=species:S:1:pos:R:3:forces:R:3 energy=1.3754848761827556 pbc="F F F"
Tc       0.00000000       0.00000000       0.00000000       0.00000000       0.00000000     -41.98890305
Tc       0.00000000       0.00000000       1.23818182       0.00000000       0.00000000      41.98890305
2
Properties=species:S:1:pos:R:3:forces:R:3 energy=-0.8148927876850813 pbc="F F F"
Tc       0.00000000       0.00000000       0.00000000       0.00000000       0.00000000     -34.16094589
Tc       0.00000000       0.00000000       1.29696970       0.00000000       0.00000000      34.16094589
2
Properties=species:S:1:pos:R:3:forces:R:3 energy=-2.647635720438703 pbc="F F F"
Tc       0.00000000       0.00000000       0.00000000       0.00000000       0.00000000     -28.07846832
Tc       0.00000000       0.00000000       1.35575758       0.00000000       0.00000000      28.07846832
2
Properties=species:S:1:pos:R:3:forces:R:3 energy=-4.256962831933392 pbc="F F F"
Tc       0.00000000       0.00000000       0.00000000       0.00000000       0.00000000     -26.61648750
Tc       0.00000000       0.00000000       1.41454545       0.00000000       0.00000000      26.61648750
2
Properties=species:S:1:pos:R:3:forces:R:3 energy=-5.67226038912912 pbc="F F F"
Tc       0.00000000       0.00000000       0.00000000       0.00000000       0.00000000     -21.27452469
Tc       0.00000000       0.00000000       1.47333333       0.00000000       0.00000000      21.27452469
2
Properties=species:S:1:pos:R:3:forces:R:3 energy=-6.779343689330388 pbc="F F F"
Tc       0.00000000       0.00000000       0.00000000       0.00000000       0.00000000     -16.62747765
Tc       0.00000000       0.00000000       1.53212121       0.00000000       0.00000000      16.62747765
2
Properties=species:S:1:pos:R:3:forces:R:3 energy=-7.635624512591804 pbc="F F F"
Tc       0.00000000       0.00000000       0.00000000       0.00000000       0.00000000     -12.78320694
Tc       0.00000000       0.00000000       1.59090909       0.00000000       0.00000000      12.78320694
2
Properties=species:S:1:pos:R:3:forces:R:3 energy=-8.340855839589551 pbc="F F F"
Tc       0.00000000       0.00000000       0.00000000       0.00000000       0.00000000     -11.39562321
Tc       0.00000000       0.00000000       1.64969697       0.00000000       0.00000000      11.39562321
2
Properties=species:S:1:pos:R:3:forces:R:3 energy=-8.993611884202162 pbc="F F F"
Tc       0.00000000       0.00000000       0.00000000       0.00000000       0.00000000     -10.79819298
Tc       0.00000000       0.00000000       1.70848485       0.00000000       0.00000000      10.79819298
2
Properties=species:S:1:pos:R:3:forces:R:3 energy=-9.594013287894498 pbc="F F F"
Tc       0.00000000       0.00000000       0.00000000       0.00000000       0.00000000      -9.63325500
Tc       0.00000000       0.00000000       1.76727273       0.00000000       0.00000000       9.63325500
2
Properties=species:S:1:pos:R:3:forces:R:3 energy=-10.147591935237374 pbc="F F F"
Tc       0.00000000       0.00000000       0.00000000       0.00000000       0.00000000      -9.14566231
Tc       0.00000000       0.00000000       1.82606061       0.00000000       0.00000000       9.14566231
2
Properties=species:S:1:pos:R:3:forces:R:3 energy=-10.628331242418792 pbc="F F F"
Tc       0.00000000       0.00000000       0.00000000       0.00000000       0.00000000      -7.16505909
Tc       0.00000000       0.00000000       1.88484848       0.00000000       0.00000000       7.16505909
2
Properties=species:S:1:pos:R:3:forces:R:3 energy=-10.99104319594803 pbc="F F F"
Tc       0.00000000       0.00000000       0.00000000       0.00000000       0.00000000      -5.10481977
Tc       0.00000000       0.00000000       1.94363636       0.00000000       0.00000000       5.10481977
2
Properties=species:S:1:pos:R:3:forces:R:3 energy=-11.22875307170564 pbc="F F F"
Tc       0.00000000       0.00000000       0.00000000       0.00000000       0.00000000      -3.05332017
Tc       0.00000000       0.00000000       2.00242424       0.00000000       0.00000000       3.05332017
2
Properties=species:S:1:pos:R:3:forces:R:3 energy=-11.355636629863447 pbc="F F F"
Tc       0.00000000       0.00000000       0.00000000       0.00000000       0.00000000      -1.26533949
Tc       0.00000000       0.00000000       2.06121212       0.00000000       0.00000000       1.26533949
2
Properties=species:S:1:pos:R:3:forces:R:3 energy=-11.381522421607674 pbc="F F F"
Tc       0.00000000       0.00000000       0.00000000       0.00000000       0.00000000       0.34576294
Tc       0.00000000       0.00000000       2.12000000       0.00000000       0.00000000      -0.34576294
2
Properties=species:S:1:pos:R:3:forces:R:3 energy=-11.321707898529239 pbc="F F F"
Tc       0.00000000       0.00000000       0.00000000       0.00000000       0.00000000       1.58681822
Tc       0.00000000       0.00000000       2.17878788       0.00000000       0.00000000      -1.58681822
2
Properties=species:S:1:pos:R:3:forces:R:3 energy=-11.202652328450164 pbc="F F F"
Tc       0.00000000       0.00000000       0.00000000       0.00000000       0.00000000       2.44449735
Tc       0.00000000       0.00000000       2.23757576       0.00000000       0.00000000      -2.44449735
2
Properties=species:S:1:pos:R:3:forces:R:3 energy=-11.04007421324537 pbc="F F F"
Tc       0.00000000       0.00000000       0.00000000       0.00000000       0.00000000       3.01224089
Tc       0.00000000       0.00000000       2.29636364       0.00000000       0.00000000      -3.01224089
2
Properties=species:S:1:pos:R:3:forces:R:3 energy=-10.855338134597908 pbc="F F F"
Tc       0.00000000       0.00000000       0.00000000       0.00000000       0.00000000       3.23231673
Tc       0.00000000       0.00000000       2.35515152       0.00000000       0.00000000      -3.23231673
2
Properties=species:S:1:pos:R:3:forces:R:3 energy=-10.663747253734654 pbc="F F F"
Tc       0.00000000       0.00000000       0.00000000       0.00000000       0.00000000       3.26433468
Tc       0.00000000       0.00000000       2.41393939       0.00000000       0.00000000      -3.26433468
2
Properties=species:S:1:pos:R:3:forces:R:3 energy=-10.473577630235537 pbc="F F F"
Tc       0.00000000       0.00000000       0.00000000       0.00000000       0.00000000       3.18310571
Tc       0.00000000       0.00000000       2.47272727       0.00000000       0.00000000      -3.18310571
2
Properties=species:S:1:pos:R:3:forces:R:3 energy=-10.292174430873148 pbc="F F F"
Tc       0.00000000       0.00000000       0.00000000       0.00000000       0.00000000       2.97333741
Tc       0.00000000       0.00000000       2.53151515       0.00000000       0.00000000      -2.97333741
2
Properties=species:S:1:pos:R:3:forces:R:3 energy=-10.125034266139401 pbc="F F F"
Tc       0.00000000       0.00000000       0.00000000       0.00000000       0.00000000       2.70409679
Tc       0.00000000       0.00000000       2.59030303       0.00000000       0.00000000      -2.70409679
2
Properties=species:S:1:pos:R:3:forces:R:3 energy=-9.975342586344432 pbc="F F F"
Tc       0.00000000       0.00000000       0.00000000       0.00000000       0.00000000       2.38220739
Tc       0.00000000       0.00000000       2.64909091       0.00000000       0.00000000      -2.38220739
2
Properties=species:S:1:pos:R:3:forces:R:3 energy=-9.844894650072304 pbc="F F F"
Tc       0.00000000       0.00000000       0.00000000       0.00000000       0.00000000       2.06223893
Tc       0.00000000       0.00000000       2.70787879       0.00000000       0.00000000      -2.06223893
2
Properties=species:S:1:pos:R:3:forces:R:3 energy=-9.731720026840609 pbc="F F F"
Tc       0.00000000       0.00000000       0.00000000       0.00000000       0.00000000       1.80005085
Tc       0.00000000       0.00000000       2.76666667       0.00000000       0.00000000      -1.80005085
2
Properties=species:S:1:pos:R:3:forces:R:3 energy=-9.631559399921894 pbc="F F F"
Tc       0.00000000       0.00000000       0.00000000       0.00000000       0.00000000       1.62418532
Tc       0.00000000       0.00000000       2.82545455       0.00000000       0.00000000      -1.62418532
2
Properties=species:S:1:pos:R:3:forces:R:3 energy=-9.538782414850802 pbc="F F F"
Tc       0.00000000       0.00000000       0.00000000       0.00000000       0.00000000       1.54632616
Tc       0.00000000       0.00000000       2.88424242       0.00000000       0.00000000      -1.54632616
2
Properties=species:S:1:pos:R:3:forces:R:3 energy=-9.44876384013993 pbc="F F F"
Tc       0.00000000       0.00000000       0.00000000       0.00000000       0.00000000       1.51880014
Tc       0.00000000       0.00000000       2.94303030       0.00000000       0.00000000      -1.51880014
2
Properties=species:S:1:pos:R:3:forces:R:3 energy=-9.360252308089995 pbc="F F F"
Tc       0.00000000       0.00000000       0.00000000       0.00000000       0.00000000       1.49098861
Tc       0.00000000       0.00000000       3.00181818       0.00000000       0.00000000      -1.49098861
2
Properties=species:S:1:pos:R:3:forces:R:3 energy=-9.273592108999608 pbc="F F F"
Tc       0.00000000       0.00000000       0.00000000       0.00000000       0.00000000       1.45631981
Tc       0.00000000       0.00000000       3.06060606       0.00000000       0.00000000      -1.45631981
2
Properties=species:S:1:pos:R:3:forces:R:3 energy=-9.189173454906747 pbc="F F F"
Tc       0.00000000       0.00000000       0.00000000       0.00000000       0.00000000       1.41409838
Tc       0.00000000       0.00000000       3.11939394       0.00000000       0.00000000      -1.41409838
2
Properties=species:S:1:pos:R:3:forces:R:3 energy=-9.107487404061676 pbc="F F F"
Tc       0.00000000       0.00000000       0.00000000       0.00000000       0.00000000       1.36410546
Tc       0.00000000       0.00000000       3.17818182       0.00000000       0.00000000      -1.36410546
2
Properties=species:S:1:pos:R:3:forces:R:3 energy=-9.028804030246594 pbc="F F F"
Tc       0.00000000       0.00000000       0.00000000       0.00000000       0.00000000       1.31298733
Tc       0.00000000       0.00000000       3.23696970       0.00000000       0.00000000      -1.31298733
2
Properties=species:S:1:pos:R:3:forces:R:3 energy=-8.953093196414061 pbc="F F F"
Tc       0.00000000       0.00000000       0.00000000       0.00000000       0.00000000       1.26266956
Tc       0.00000000       0.00000000       3.29575758       0.00000000       0.00000000      -1.26266956
2
Properties=species:S:1:pos:R:3:forces:R:3 energy=-8.880402136899523 pbc="F F F"
Tc       0.00000000       0.00000000       0.00000000       0.00000000       0.00000000       1.20945334
Tc       0.00000000       0.00000000       3.35454545       0.00000000       0.00000000      -1.20945334
2
Properties=species:S:1:pos:R:3:forces:R:3 energy=-8.811012403726501 pbc="F F F"
Tc       0.00000000       0.00000000       0.00000000       0.00000000       0.00000000       1.15009177
Tc       0.00000000       0.00000000       3.41333333       0.00000000       0.00000000      -1.15009177
2
Properties=species:S:1:pos:R:3:forces:R:3 energy=-8.74530821693058 pbc="F F F"
Tc       0.00000000       0.00000000       0.00000000       0.00000000       0.00000000       1.08420181
Tc       0.00000000       0.00000000       3.47212121       0.00000000       0.00000000      -1.08420181
2
Properties=species:S:1:pos:R:3:forces:R:3 energy=-8.683629772465356 pbc="F F F"
Tc       0.00000000       0.00000000       0.00000000       0.00000000       0.00000000       1.01358116
Tc       0.00000000       0.00000000       3.53090909       0.00000000       0.00000000      -1.01358116
2
Properties=species:S:1:pos:R:3:forces:R:3 energy=-8.626191362267729 pbc="F F F"
Tc       0.00000000       0.00000000       0.00000000       0.00000000       0.00000000       0.94013804
Tc       0.00000000       0.00000000       3.58969697       0.00000000       0.00000000      -0.94013804
2
Properties=species:S:1:pos:R:3:forces:R:3 energy=-8.573131396146161 pbc="F F F"
Tc       0.00000000       0.00000000       0.00000000       0.00000000       0.00000000       0.86462551
Tc       0.00000000       0.00000000       3.64848485       0.00000000       0.00000000      -0.86462551
2
Properties=species:S:1:pos:R:3:forces:R:3 energy=-8.524569894672373 pbc="F F F"
Tc       0.00000000       0.00000000       0.00000000       0.00000000       0.00000000       0.78712296
Tc       0.00000000       0.00000000       3.70727273       0.00000000       0.00000000      -0.78712296
2
Properties=species:S:1:pos:R:3:forces:R:3 energy=-8.480614470988657 pbc="F F F"
Tc       0.00000000       0.00000000       0.00000000       0.00000000       0.00000000       0.70809257
Tc       0.00000000       0.00000000       3.76606061       0.00000000       0.00000000      -0.70809257
2
Properties=species:S:1:pos:R:3:forces:R:3 energy=-8.441322076129264 pbc="F F F"
Tc       0.00000000       0.00000000       0.00000000       0.00000000       0.00000000       0.62880492
Tc       0.00000000       0.00000000       3.82484848       0.00000000       0.00000000      -0.62880492
2
Properties=species:S:1:pos:R:3:forces:R:3 energy=-8.406655491133579 pbc="F F F"
Tc       0.00000000       0.00000000       0.00000000       0.00000000       0.00000000       0.55101770
Tc       0.00000000       0.00000000       3.88363636       0.00000000       0.00000000      -0.55101770
2
Properties=species:S:1:pos:R:3:forces:R:3 energy=-8.376471832269162 pbc="F F F"
Tc       0.00000000       0.00000000       0.00000000       0.00000000       0.00000000       0.47643381
Tc       0.00000000       0.00000000       3.94242424       0.00000000       0.00000000      -0.47643381
2
Properties=species:S:1:pos:R:3:forces:R:3 energy=-8.350548293902657 pbc="F F F"
Tc       0.00000000       0.00000000       0.00000000       0.00000000       0.00000000       0.40635529
Tc       0.00000000       0.00000000       4.00121212       0.00000000       0.00000000      -0.40635529
2
Properties=species:S:1:pos:R:3:forces:R:3 energy=-8.328588938261598 pbc="F F F"
Tc       0.00000000       0.00000000       0.00000000       0.00000000       0.00000000       0.34167895
Tc       0.00000000       0.00000000       4.06000000       0.00000000       0.00000000      -0.34167895
2
Properties=species:S:1:pos:R:3:forces:R:3 energy=-8.310257044333433 pbc="F F F"
Tc       0.00000000       0.00000000       0.00000000       0.00000000       0.00000000       0.28304932
Tc       0.00000000       0.00000000       4.11878788       0.00000000       0.00000000      -0.28304932
2
Properties=species:S:1:pos:R:3:forces:R:3 energy=-8.295180836247072 pbc="F F F"
Tc       0.00000000       0.00000000       0.00000000       0.00000000       0.00000000       0.23093981
Tc       0.00000000       0.00000000       4.17757576       0.00000000       0.00000000      -0.23093981
2
Properties=species:S:1:pos:R:3:forces:R:3 energy=-8.282970453005609 pbc="F F F"
Tc       0.00000000       0.00000000       0.00000000       0.00000000       0.00000000       0.18561496
Tc       0.00000000       0.00000000       4.23636364       0.00000000       0.00000000      -0.18561496
2
Properties=species:S:1:pos:R:3:forces:R:3 energy=-8.27322366419657 pbc="F F F"
Tc       0.00000000       0.00000000       0.00000000       0.00000000       0.00000000       0.14704122
Tc       0.00000000       0.00000000       4.29515152       0.00000000       0.00000000      -0.14704122
2
Properties=species:S:1:pos:R:3:forces:R:3 energy=-8.265557144839388 pbc="F F F"
Tc       0.00000000       0.00000000       0.00000000       0.00000000       0.00000000       0.11485648
Tc       0.00000000       0.00000000       4.35393939       0.00000000       0.00000000      -0.11485648
2
Properties=species:S:1:pos:R:3:forces:R:3 energy=-8.259609101989511 pbc="F F F"
Tc       0.00000000       0.00000000       0.00000000       0.00000000       0.00000000       0.08842359
Tc       0.00000000       0.00000000       4.41272727       0.00000000       0.00000000      -0.08842359
2
Properties=species:S:1:pos:R:3:forces:R:3 energy=-8.255062105901198 pbc="F F F"
Tc       0.00000000       0.00000000       0.00000000       0.00000000       0.00000000       0.06696254
Tc       0.00000000       0.00000000       4.47151515       0.00000000       0.00000000      -0.06696254
2
Properties=species:S:1:pos:R:3:forces:R:3 energy=-8.25165218961122 pbc="F F F"
Tc       0.00000000       0.00000000       0.00000000       0.00000000       0.00000000       0.04968856
Tc       0.00000000       0.00000000       4.53030303       0.00000000       0.00000000      -0.04968856
2
Properties=species:S:1:pos:R:3:forces:R:3 energy=-8.249151701808106 pbc="F F F"
Tc       0.00000000       0.00000000       0.00000000       0.00000000       0.00000000       0.03591858
Tc       0.00000000       0.00000000       4.58909091       0.00000000       0.00000000      -0.03591858
2
Properties=species:S:1:pos:R:3:forces:R:3 energy=-8.247371844737236 pbc="F F F"
Tc       0.00000000       0.00000000       0.00000000       0.00000000       0.00000000       0.02511344
Tc       0.00000000       0.00000000       4.64787879       0.00000000       0.00000000      -0.02511344
2
Properties=species:S:1:pos:R:3:forces:R:3 energy=-8.246147206335499 pbc="F F F"
Tc       0.00000000       0.00000000       0.00000000       0.00000000       0.00000000       0.01686594
Tc       0.00000000       0.00000000       4.70666667       0.00000000       0.00000000      -0.01686594
2
Properties=species:S:1:pos:R:3:forces:R:3 energy=-8.245344153230834 pbc="F F F"
Tc       0.00000000       0.00000000       0.00000000       0.00000000       0.00000000       0.01086077
Tc       0.00000000       0.00000000       4.76545455       0.00000000       0.00000000      -0.01086077
2
Properties=species:S:1:pos:R:3:forces:R:3 energy=-8.24483316151575 pbc="F F F"
Tc       0.00000000       0.00000000       0.00000000       0.00000000       0.00000000       0.00683855
Tc       0.00000000       0.00000000       4.82424242       0.00000000       0.00000000      -0.00683855
2
Properties=species:S:1:pos:R:3:forces:R:3 energy=-8.244506714811795 pbc="F F F"
Tc       0.00000000       0.00000000       0.00000000       0.00000000       0.00000000       0.00457529
Tc       0.00000000       0.00000000       4.88303030       0.00000000       0.00000000      -0.00457529
2
Properties=species:S:1:pos:R:3:forces:R:3 energy=-8.244263880753737 pbc="F F F"
Tc       0.00000000       0.00000000       0.00000000       0.00000000       0.00000000       0.00387609
Tc       0.00000000       0.00000000       4.94181818       0.00000000       0.00000000      -0.00387609
2
Properties=species:S:1:pos:R:3:forces:R:3 energy=-8.24402275310519 pbc="F F F"
Tc       0.00000000       0.00000000       0.00000000       0.00000000       0.00000000       0.00456393
Tc       0.00000000       0.00000000       5.00060606       0.00000000       0.00000000      -0.00456393
2
Properties=species:S:1:pos:R:3:forces:R:3 energy=-8.243704296316038 pbc="F F F"
Tc       0.00000000       0.00000000       0.00000000       0.00000000       0.00000000       0.00646008
Tc       0.00000000       0.00000000       5.05939394       0.00000000       0.00000000      -0.00646008
2
Properties=species:S:1:pos:R:3:forces:R:3 energy=-8.24324455321921 pbc="F F F"
Tc       0.00000000       0.00000000       0.00000000       0.00000000       0.00000000       0.00934975
Tc       0.00000000       0.00000000       5.11818182       0.00000000       0.00000000      -0.00934975
2
Properties=species:S:1:pos:R:3:forces:R:3 energy=-8.24259189488151 pbc="F F F"
Tc       0.00000000       0.00000000       0.00000000       0.00000000       0.00000000       0.01295445
Tc       0.00000000       0.00000000       5.17696970       0.00000000       0.00000000      -0.01295445
2
Properties=species:S:1:pos:R:3:forces:R:3 energy=-8.241712904208454 pbc="F F F"
Tc       0.00000000       0.00000000       0.00000000       0.00000000       0.00000000       0.01692002
Tc       0.00000000       0.00000000       5.23575758       0.00000000       0.00000000      -0.01692002
2
Properties=species:S:1:pos:R:3:forces:R:3 energy=-8.240601751128485 pbc="F F F"
Tc       0.00000000       0.00000000       0.00000000       0.00000000       0.00000000       0.02083914
Tc       0.00000000       0.00000000       5.29454545       0.00000000       0.00000000      -0.02083914
2
Properties=species:S:1:pos:R:3:forces:R:3 energy=-8.239271897795962 pbc="F F F"
Tc       0.00000000       0.00000000       0.00000000       0.00000000       0.00000000       0.02430119
Tc       0.00000000       0.00000000       5.35333333       0.00000000       0.00000000      -0.02430119
2
Properties=species:S:1:pos:R:3:forces:R:3 energy=-8.237761760448421 pbc="F F F"
Tc       0.00000000       0.00000000       0.00000000       0.00000000       0.00000000       0.02695858
Tc       0.00000000       0.00000000       5.41212121       0.00000000       0.00000000      -0.02695858
2
Properties=species:S:1:pos:R:3:forces:R:3 energy=-8.236124358373281 pbc="F F F"
Tc       0.00000000       0.00000000       0.00000000       0.00000000       0.00000000       0.02858852
Tc       0.00000000       0.00000000       5.47090909       0.00000000       0.00000000      -0.02858852
2
Properties=species:S:1:pos:R:3:forces:R:3 energy=-8.234420733222287 pbc="F F F"
Tc       0.00000000       0.00000000       0.00000000       0.00000000       0.00000000       0.02912768
Tc       0.00000000       0.00000000       5.52969697       0.00000000       0.00000000      -0.02912768
2
Properties=species:S:1:pos:R:3:forces:R:3 energy=-8.232718114522783 pbc="F F F"
Tc       0.00000000       0.00000000       0.00000000       0.00000000       0.00000000       0.02867367
Tc       0.00000000       0.00000000       5.58848485       0.00000000       0.00000000      -0.02867367
2
Properties=species:S:1:pos:R:3:forces:R:3 energy=-8.231064259170202 pbc="F F F"
Tc       0.00000000       0.00000000       0.00000000       0.00000000       0.00000000       0.02745258
Tc       0.00000000       0.00000000       5.64727273       0.00000000       0.00000000      -0.02745258
2
Properties=species:S:1:pos:R:3:forces:R:3 energy=-8.229498919278516 pbc="F F F"
Tc       0.00000000       0.00000000       0.00000000       0.00000000       0.00000000       0.02576137
Tc       0.00000000       0.00000000       5.70606061       0.00000000       0.00000000      -0.02576137
2
Properties=species:S:1:pos:R:3:forces:R:3 energy=-8.228037789691884 pbc="F F F"
Tc       0.00000000       0.00000000       0.00000000       0.00000000       0.00000000       0.02390189
Tc       0.00000000       0.00000000       5.76484848       0.00000000       0.00000000      -0.02390189
2
Properties=species:S:1:pos:R:3:forces:R:3 energy=-8.226688726783669 pbc="F F F"
Tc       0.00000000       0.00000000       0.00000000       0.00000000       0.00000000       0.02212246
Tc       0.00000000       0.00000000       5.82363636       0.00000000       0.00000000      -0.02212246
2
Properties=species:S:1:pos:R:3:forces:R:3 energy=-8.225433661906564 pbc="F F F"
Tc       0.00000000       0.00000000       0.00000000       0.00000000       0.00000000       0.02057276
Tc       0.00000000       0.00000000       5.88242424       0.00000000       0.00000000      -0.02057276
2
Properties=species:S:1:pos:R:3:forces:R:3 energy=-8.224264009303448 pbc="F F F"
Tc       0.00000000       0.00000000       0.00000000       0.00000000       0.00000000       0.01928562
Tc       0.00000000       0.00000000       5.94121212       0.00000000       0.00000000      -0.01928562
2
Properties=species:S:1:pos:R:3:forces:R:3 energy=-8.223163473043206 pbc="F F F"
Tc       0.00000000       0.00000000       0.00000000       0.00000000       0.00000000       0.01818999
Tc       0.00000000       0.00000000       6.00000000       0.00000000       0.00000000      -0.01818999
