2
Properties=species:S:1:pos:R:3:forces:R:3 energy=327069055.9478331 pbc="F F F"
Te       0.00000000       0.00000000       0.00000000       0.00000000       0.00000000 -3926834944.00000000
Te       0.00000000       0.00000000       0.18000000       0.00000000       0.00000000 3926834944.00000000
2
Properties=species:S:1:pos:R:3:forces:R:3 energy=138867887.94783312 pbc="F F F"
Te       0.00000000       0.00000000       0.00000000       0.00000000       0.00000000 -2422179584.00000000
Te       0.00000000       0.00000000       0.23878788       0.00000000       0.00000000 2422179584.00000000
2
Properties=species:S:1:pos:R:3:forces:R:3 energy=40356275.94783311 pbc="F F F"
Te       0.00000000       0.00000000       0.00000000       0.00000000       0.00000000 -1012710400.00000000
Te       0.00000000       0.00000000       0.29757576       0.00000000       0.00000000 1012710400.00000000
2
Properties=species:S:1:pos:R:3:forces:R:3 energy=5207317.447833122 pbc="F F F"
Te       0.00000000       0.00000000       0.00000000       0.00000000       0.00000000 -255490736.00000000
Te       0.00000000       0.00000000       0.35636364       0.00000000       0.00000000 255490736.00000000
2
Properties=species:S:1:pos:R:3:forces:R:3 energy=-170351.1927918715 pbc="F F F"
Te       0.00000000       0.00000000       0.00000000       0.00000000       0.00000000 4720637.00000000
Te       0.00000000       0.00000000       0.41515152       0.00000000       0.00000000 -4720637.00000000
2
Properties=species:S:1:pos:R:3:forces:R:3 energy=-28931.481854352493 pbc="F F F"
Te       0.00000000       0.00000000       0.00000000       0.00000000       0.00000000  956692.00000000
Te       0.00000000       0.00000000       0.47393939       0.00000000       0.00000000 -956692.00000000
2
Properties=species:S:1:pos:R:3:forces:R:3 energy=-7436.679119952149 pbc="F F F"
Te       0.00000000       0.00000000       0.00000000       0.00000000       0.00000000  143010.35937500
Te       0.00000000       0.00000000       0.53272727       0.00000000       0.00000000 -143010.35937500
2
Properties=species:S:1:pos:R:3:forces:R:3 energy=-1676.7157409888785 pbc="F F F"
Te       0.00000000       0.00000000       0.00000000       0.00000000       0.00000000   47019.80859375
Te       0.00000000       0.00000000       0.59151515       0.00000000       0.00000000  -47019.80859375
2
Properties=species:S:1:pos:R:3:forces:R:3 energy=-255.5377013557338 pbc="F F F"
Te       0.00000000       0.00000000       0.00000000       0.00000000       0.00000000   10098.13574219
Te       0.00000000       0.00000000       0.65030303       0.00000000       0.00000000  -10098.13574219
2
Properties=species:S:1:pos:R:3:forces:R:3 energy=25.29894390999316 pbc="F F F"
Te       0.00000000       0.00000000       0.00000000       0.00000000       0.00000000    1117.96789551
Te       0.00000000       0.00000000       0.70909091       0.00000000       0.00000000   -1117.96789551
2
Properties=species:S:1:pos:R:3:forces:R:3 energy=174.45643961772666 pbc="F F F"
Te       0.00000000       0.00000000       0.00000000       0.00000000       0.00000000    1549.80395508
Te       0.00000000       0.00000000       0.76787879       0.00000000       0.00000000   -1549.80395508
2
Properties=species:S:1:pos:R:3:forces:R:3 energy=302.13991160152506 pbc="F F F"
Te       0.00000000       0.00000000       0.00000000       0.00000000       0.00000000     928.90386963
Te       0.00000000       0.00000000       0.82666667       0.00000000       0.00000000    -928.90386963
2
Properties=species:S:1:pos:R:3:forces:R:3 energy=295.83797111754797 pbc="F F F"
Te       0.00000000       0.00000000       0.00000000       0.00000000       0.00000000    -802.60241699
Te       0.00000000       0.00000000       0.88545455       0.00000000       0.00000000     802.60241699
2
Properties=species:S:1:pos:R:3:forces:R:3 energy=230.08479790714827 pbc="F F F"
Te       0.00000000       0.00000000       0.00000000       0.00000000       0.00000000   -1281.39294434
Te       0.00000000       0.00000000       0.94424242       0.00000000       0.00000000    1281.39294434
2
Properties=species:S:1:pos:R:3:forces:R:3 energy=163.1203975078396 pbc="F F F"
Te       0.00000000       0.00000000       0.00000000       0.00000000       0.00000000    -942.30749512
Te       0.00000000       0.00000000       1.00303030       0.00000000       0.00000000     942.30749512
2
Properties=species:S:1:pos:R:3:forces:R:3 energy=124.4313346255445 pbc="F F F"
Te       0.00000000       0.00000000       0.00000000       0.00000000       0.00000000    -428.91973877
Te       0.00000000       0.00000000       1.06181818       0.00000000       0.00000000     428.91973877
2
Properties=species:S:1:pos:R:3:forces:R:3 energy=107.52190468224394 pbc="F F F"
Te       0.00000000       0.00000000       0.00000000       0.00000000       0.00000000    -113.14089966
Te       0.00000000       0.00000000       1.12060606       0.00000000       0.00000000     113.14089966
2
Properties=species:S:1:pos:R:3:forces:R:3 energy=105.39635734889437 pbc="F F F"
Te       0.00000000       0.00000000       0.00000000       0.00000000       0.00000000     -42.21838760
Te       0.00000000       0.00000000       1.17939394       0.00000000       0.00000000      42.21838760
2
Properties=species:S:1:pos:R:3:forces:R:3 energy=122.65315770535764 pbc="F F F"
Te       0.00000000       0.00000000       0.00000000       0.00000000       0.00000000     102.03722382
Te       0.00000000       0.00000000       1.23818182       0.00000000       0.00000000    -102.03722382
2
Properties=species:S:1:pos:R:3:forces:R:3 energy=120.84719174894015 pbc="F F F"
Te       0.00000000       0.00000000       0.00000000       0.00000000       0.00000000    -128.65745544
Te       0.00000000       0.00000000       1.29696970       0.00000000       0.00000000     128.65745544
2
Properties=species:S:1:pos:R:3:forces:R:3 energy=109.36019638390059 pbc="F F F"
Te       0.00000000       0.00000000       0.00000000       0.00000000       0.00000000    -251.20437622
Te       0.00000000       0.00000000       1.35575758       0.00000000       0.00000000     251.20437622
2
Properties=species:S:1:pos:R:3:forces:R:3 energy=92.23167680835894 pbc="F F F"
Te       0.00000000       0.00000000       0.00000000       0.00000000       0.00000000    -325.95388794
Te       0.00000000       0.00000000       1.41454545       0.00000000       0.00000000     325.95388794
2
Properties=species:S:1:pos:R:3:forces:R:3 energy=72.67415000655596 pbc="F F F"
Te       0.00000000       0.00000000       0.00000000       0.00000000       0.00000000    -319.23400879
Te       0.00000000       0.00000000       1.47333333       0.00000000       0.00000000     319.23400879
2
Properties=species:S:1:pos:R:3:forces:R:3 energy=55.63386713160567 pbc="F F F"
Te       0.00000000       0.00000000       0.00000000       0.00000000       0.00000000    -266.41400146
Te       0.00000000       0.00000000       1.53212121       0.00000000       0.00000000     266.41400146
2
Properties=species:S:1:pos:R:3:forces:R:3 energy=41.38809210996946 pbc="F F F"
Te       0.00000000       0.00000000       0.00000000       0.00000000       0.00000000    -216.74740601
Te       0.00000000       0.00000000       1.59090909       0.00000000       0.00000000     216.74740601
2
Properties=species:S:1:pos:R:3:forces:R:3 energy=30.027647430760872 pbc="F F F"
Te       0.00000000       0.00000000       0.00000000       0.00000000       0.00000000    -169.95114136
Te       0.00000000       0.00000000       1.64969697       0.00000000       0.00000000     169.95114136
2
Properties=species:S:1:pos:R:3:forces:R:3 energy=21.280463647626405 pbc="F F F"
Te       0.00000000       0.00000000       0.00000000       0.00000000       0.00000000    -128.11775208
Te       0.00000000       0.00000000       1.70848485       0.00000000       0.00000000     128.11775208
2
Properties=species:S:1:pos:R:3:forces:R:3 energy=14.932219887020691 pbc="F F F"
Te       0.00000000       0.00000000       0.00000000       0.00000000       0.00000000     -90.02429962
Te       0.00000000       0.00000000       1.76727273       0.00000000       0.00000000      90.02429962
2
Properties=species:S:1:pos:R:3:forces:R:3 energy=10.41351201889845 pbc="F F F"
Te       0.00000000       0.00000000       0.00000000       0.00000000       0.00000000     -65.06734467
Te       0.00000000       0.00000000       1.82606061       0.00000000       0.00000000      65.06734467
2
Properties=species:S:1:pos:R:3:forces:R:3 energy=7.169154837644276 pbc="F F F"
Te       0.00000000       0.00000000       0.00000000       0.00000000       0.00000000     -46.60846710
Te       0.00000000       0.00000000       1.88484848       0.00000000       0.00000000      46.60846710
2
Properties=species:S:1:pos:R:3:forces:R:3 energy=4.780662267627198 pbc="F F F"
Te       0.00000000       0.00000000       0.00000000       0.00000000       0.00000000     -35.69945145
Te       0.00000000       0.00000000       1.94363636       0.00000000       0.00000000      35.69945145
2
Properties=species:S:1:pos:R:3:forces:R:3 energy=2.8848495746943064 pbc="F F F"
Te       0.00000000       0.00000000       0.00000000       0.00000000       0.00000000     -29.29760742
Te       0.00000000       0.00000000       2.00242424       0.00000000       0.00000000      29.29760742
2
Properties=species:S:1:pos:R:3:forces:R:3 energy=1.2953388785600821 pbc="F F F"
Te       0.00000000       0.00000000       0.00000000       0.00000000       0.00000000     -25.01646614
Te       0.00000000       0.00000000       2.06121212       0.00000000       0.00000000      25.01646614
2
Properties=species:S:1:pos:R:3:forces:R:3 energy=-0.06877005754557723 pbc="F F F"
Te       0.00000000       0.00000000       0.00000000       0.00000000       0.00000000     -21.40629959
Te       0.00000000       0.00000000       2.12000000       0.00000000       0.00000000      21.40629959
2
Properties=species:S:1:pos:R:3:forces:R:3 energy=-1.2263363397944282 pbc="F F F"
Te       0.00000000       0.00000000       0.00000000       0.00000000       0.00000000     -18.02452850
Te       0.00000000       0.00000000       2.17878788       0.00000000       0.00000000      18.02452850
2
Properties=species:S:1:pos:R:3:forces:R:3 energy=-2.1879052157643386 pbc="F F F"
Te       0.00000000       0.00000000       0.00000000       0.00000000       0.00000000     -14.67199230
Te       0.00000000       0.00000000       2.23757576       0.00000000       0.00000000      14.67199230
2
Properties=species:S:1:pos:R:3:forces:R:3 energy=-2.9539444533638886 pbc="F F F"
Te       0.00000000       0.00000000       0.00000000       0.00000000       0.00000000     -11.42897034
Te       0.00000000       0.00000000       2.29636364       0.00000000       0.00000000      11.42897034
2
Properties=species:S:1:pos:R:3:forces:R:3 energy=-3.5363038831181983 pbc="F F F"
Te       0.00000000       0.00000000       0.00000000       0.00000000       0.00000000      -8.43350029
Te       0.00000000       0.00000000       2.35515152       0.00000000       0.00000000       8.43350029
2
Properties=species:S:1:pos:R:3:forces:R:3 energy=-3.9533635720847284 pbc="F F F"
Te       0.00000000       0.00000000       0.00000000       0.00000000       0.00000000      -5.82113838
Te       0.00000000       0.00000000       2.41393939       0.00000000       0.00000000       5.82113838
2
Properties=species:S:1:pos:R:3:forces:R:3 energy=-4.226981374623635 pbc="F F F"
Te       0.00000000       0.00000000       0.00000000       0.00000000       0.00000000      -3.53930616
Te       0.00000000       0.00000000       2.47272727       0.00000000       0.00000000       3.53930616
2
Properties=species:S:1:pos:R:3:forces:R:3 energy=-4.377445346485115 pbc="F F F"
Te       0.00000000       0.00000000       0.00000000       0.00000000       0.00000000      -1.66275764
Te       0.00000000       0.00000000       2.53151515       0.00000000       0.00000000       1.66275764
2
Properties=species:S:1:pos:R:3:forces:R:3 energy=-4.432461406817977 pbc="F F F"
Te       0.00000000       0.00000000       0.00000000       0.00000000       0.00000000      -0.28711841
Te       0.00000000       0.00000000       2.59030303       0.00000000       0.00000000       0.28711841
2
Properties=species:S:1:pos:R:3:forces:R:3 energy=-4.419213342082536 pbc="F F F"
Te       0.00000000       0.00000000       0.00000000       0.00000000       0.00000000       0.67832476
Te       0.00000000       0.00000000       2.64909091       0.00000000       0.00000000      -0.67832476
2
Properties=species:S:1:pos:R:3:forces:R:3 energy=-4.358954180717372 pbc="F F F"
Te       0.00000000       0.00000000       0.00000000       0.00000000       0.00000000       1.32455671
Te       0.00000000       0.00000000       2.70787879       0.00000000       0.00000000      -1.32455671
2
Properties=species:S:1:pos:R:3:forces:R:3 energy=-4.268256509349311 pbc="F F F"
Te       0.00000000       0.00000000       0.00000000       0.00000000       0.00000000       1.72725320
Te       0.00000000       0.00000000       2.76666667       0.00000000       0.00000000      -1.72725320
2
Properties=species:S:1:pos:R:3:forces:R:3 energy=-4.1591403760255945 pbc="F F F"
Te       0.00000000       0.00000000       0.00000000       0.00000000       0.00000000       1.96203864
Te       0.00000000       0.00000000       2.82545455       0.00000000       0.00000000      -1.96203864
2
Properties=species:S:1:pos:R:3:forces:R:3 energy=-4.039852527661582 pbc="F F F"
Te       0.00000000       0.00000000       0.00000000       0.00000000       0.00000000       2.07952571
Te       0.00000000       0.00000000       2.88424242       0.00000000       0.00000000      -2.07952571
2
Properties=species:S:1:pos:R:3:forces:R:3 energy=-3.9163289836465567 pbc="F F F"
Te       0.00000000       0.00000000       0.00000000       0.00000000       0.00000000       2.11074805
Te       0.00000000       0.00000000       2.94303030       0.00000000       0.00000000      -2.11074805
2
Properties=species:S:1:pos:R:3:forces:R:3 energy=-3.79280823975763 pbc="F F F"
Te       0.00000000       0.00000000       0.00000000       0.00000000       0.00000000       2.08452201
Te       0.00000000       0.00000000       3.00181818       0.00000000       0.00000000      -2.08452201
2
Properties=species:S:1:pos:R:3:forces:R:3 energy=-3.671789072743045 pbc="F F F"
Te       0.00000000       0.00000000       0.00000000       0.00000000       0.00000000       2.02976489
Te       0.00000000       0.00000000       3.06060606       0.00000000       0.00000000      -2.02976489
2
Properties=species:S:1:pos:R:3:forces:R:3 energy=-3.554370563229842 pbc="F F F"
Te       0.00000000       0.00000000       0.00000000       0.00000000       0.00000000       1.96375918
Te       0.00000000       0.00000000       3.11939394       0.00000000       0.00000000      -1.96375918
2
Properties=species:S:1:pos:R:3:forces:R:3 energy=-3.4410065931561467 pbc="F F F"
Te       0.00000000       0.00000000       0.00000000       0.00000000       0.00000000       1.89208829
Te       0.00000000       0.00000000       3.17818182       0.00000000       0.00000000      -1.89208829
2
Properties=species:S:1:pos:R:3:forces:R:3 energy=-3.332002319615976 pbc="F F F"
Te       0.00000000       0.00000000       0.00000000       0.00000000       0.00000000       1.81539023
Te       0.00000000       0.00000000       3.23696970       0.00000000       0.00000000      -1.81539023
2
Properties=species:S:1:pos:R:3:forces:R:3 energy=-3.227696897853426 pbc="F F F"
Te       0.00000000       0.00000000       0.00000000       0.00000000       0.00000000       1.73183155
Te       0.00000000       0.00000000       3.29575758       0.00000000       0.00000000      -1.73183155
2
Properties=species:S:1:pos:R:3:forces:R:3 energy=-3.1285538845898255 pbc="F F F"
Te       0.00000000       0.00000000       0.00000000       0.00000000       0.00000000       1.63942671
Te       0.00000000       0.00000000       3.35454545       0.00000000       0.00000000      -1.63942671
2
Properties=species:S:1:pos:R:3:forces:R:3 energy=-3.0351239526987026 pbc="F F F"
Te       0.00000000       0.00000000       0.00000000       0.00000000       0.00000000       1.53762162
Te       0.00000000       0.00000000       3.41333333       0.00000000       0.00000000      -1.53762162
2
Properties=species:S:1:pos:R:3:forces:R:3 energy=-2.9479197871441056 pbc="F F F"
Te       0.00000000       0.00000000       0.00000000       0.00000000       0.00000000       1.42811430
Te       0.00000000       0.00000000       3.47212121       0.00000000       0.00000000      -1.42811430
2
Properties=species:S:1:pos:R:3:forces:R:3 energy=-2.867292349737788 pbc="F F F"
Te       0.00000000       0.00000000       0.00000000       0.00000000       0.00000000       1.31454957
Te       0.00000000       0.00000000       3.53090909       0.00000000       0.00000000      -1.31454957
2
Properties=species:S:1:pos:R:3:forces:R:3 energy=-2.793366818233259 pbc="F F F"
Te       0.00000000       0.00000000       0.00000000       0.00000000       0.00000000       1.20066154
Te       0.00000000       0.00000000       3.58969697       0.00000000       0.00000000      -1.20066154
2
Properties=species:S:1:pos:R:3:forces:R:3 energy=-2.7260785851953218 pbc="F F F"
Te       0.00000000       0.00000000       0.00000000       0.00000000       0.00000000       1.08906138
Te       0.00000000       0.00000000       3.64848485       0.00000000       0.00000000      -1.08906138
2
Properties=species:S:1:pos:R:3:forces:R:3 energy=-2.665238994171724 pbc="F F F"
Te       0.00000000       0.00000000       0.00000000       0.00000000       0.00000000       0.98163033
Te       0.00000000       0.00000000       3.70727273       0.00000000       0.00000000      -0.98163033
2
Properties=species:S:1:pos:R:3:forces:R:3 energy=-2.610545248735349 pbc="F F F"
Te       0.00000000       0.00000000       0.00000000       0.00000000       0.00000000       0.88018596
Te       0.00000000       0.00000000       3.76606061       0.00000000       0.00000000      -0.88018596
2
Properties=species:S:1:pos:R:3:forces:R:3 energy=-2.561597994438529 pbc="F F F"
Te       0.00000000       0.00000000       0.00000000       0.00000000       0.00000000       0.78641206
Te       0.00000000       0.00000000       3.82484848       0.00000000       0.00000000      -0.78641206
2
Properties=species:S:1:pos:R:3:forces:R:3 energy=-2.5179104262363854 pbc="F F F"
Te       0.00000000       0.00000000       0.00000000       0.00000000       0.00000000       0.70133024
Te       0.00000000       0.00000000       3.88363636       0.00000000       0.00000000      -0.70133024
2
Properties=species:S:1:pos:R:3:forces:R:3 energy=-2.478966456284483 pbc="F F F"
Te       0.00000000       0.00000000       0.00000000       0.00000000       0.00000000       0.62498999
Te       0.00000000       0.00000000       3.94242424       0.00000000       0.00000000      -0.62498999
2
Properties=species:S:1:pos:R:3:forces:R:3 energy=-2.4442717798642706 pbc="F F F"
Te       0.00000000       0.00000000       0.00000000       0.00000000       0.00000000       0.55661243
Te       0.00000000       0.00000000       4.00121212       0.00000000       0.00000000      -0.55661243
2
Properties=species:S:1:pos:R:3:forces:R:3 energy=-2.4133888817325175 pbc="F F F"
Te       0.00000000       0.00000000       0.00000000       0.00000000       0.00000000       0.49506909
Te       0.00000000       0.00000000       4.06000000       0.00000000       0.00000000      -0.49506909
2
Properties=species:S:1:pos:R:3:forces:R:3 energy=-2.385949913892411 pbc="F F F"
Te       0.00000000       0.00000000       0.00000000       0.00000000       0.00000000       0.43938866
Te       0.00000000       0.00000000       4.11878788       0.00000000       0.00000000      -0.43938866
2
Properties=species:S:1:pos:R:3:forces:R:3 energy=-2.361623968891773 pbc="F F F"
Te       0.00000000       0.00000000       0.00000000       0.00000000       0.00000000       0.38904780
Te       0.00000000       0.00000000       4.17757576       0.00000000       0.00000000      -0.38904780
2
Properties=species:S:1:pos:R:3:forces:R:3 energy=-2.3401020277743574 pbc="F F F"
Te       0.00000000       0.00000000       0.00000000       0.00000000       0.00000000       0.34400633
Te       0.00000000       0.00000000       4.23636364       0.00000000       0.00000000      -0.34400633
2
Properties=species:S:1:pos:R:3:forces:R:3 energy=-2.3210687221493838 pbc="F F F"
Te       0.00000000       0.00000000       0.00000000       0.00000000       0.00000000       0.30453685
Te       0.00000000       0.00000000       4.29515152       0.00000000       0.00000000      -0.30453685
2
Properties=species:S:1:pos:R:3:forces:R:3 energy=-2.3041812995036017 pbc="F F F"
Te       0.00000000       0.00000000       0.00000000       0.00000000       0.00000000       0.27095774
Te       0.00000000       0.00000000       4.35393939       0.00000000       0.00000000      -0.27095774
2
Properties=species:S:1:pos:R:3:forces:R:3 energy=-2.289092114575196 pbc="F F F"
Te       0.00000000       0.00000000       0.00000000       0.00000000       0.00000000       0.24338126
Te       0.00000000       0.00000000       4.41272727       0.00000000       0.00000000      -0.24338126
2
Properties=species:S:1:pos:R:3:forces:R:3 energy=-2.275451525222781 pbc="F F F"
Te       0.00000000       0.00000000       0.00000000       0.00000000       0.00000000       0.22154763
Te       0.00000000       0.00000000       4.47151515       0.00000000       0.00000000      -0.22154763
2
Properties=species:S:1:pos:R:3:forces:R:3 energy=-2.2629435863520966 pbc="F F F"
Te       0.00000000       0.00000000       0.00000000       0.00000000       0.00000000       0.20478922
Te       0.00000000       0.00000000       4.53030303       0.00000000       0.00000000      -0.20478922
2
Properties=species:S:1:pos:R:3:forces:R:3 energy=-2.2512942828605818 pbc="F F F"
Te       0.00000000       0.00000000       0.00000000       0.00000000       0.00000000       0.19211872
Te       0.00000000       0.00000000       4.58909091       0.00000000       0.00000000      -0.19211872
2
Properties=species:S:1:pos:R:3:forces:R:3 energy=-2.2402977723521067 pbc="F F F"
Te       0.00000000       0.00000000       0.00000000       0.00000000       0.00000000       0.18242870
Te       0.00000000       0.00000000       4.64787879       0.00000000       0.00000000      -0.18242870
2
Properties=species:S:1:pos:R:3:forces:R:3 energy=-2.2298058186917595 pbc="F F F"
Te       0.00000000       0.00000000       0.00000000       0.00000000       0.00000000       0.17471051
Te       0.00000000       0.00000000       4.70666667       0.00000000       0.00000000      -0.17471051
2
Properties=species:S:1:pos:R:3:forces:R:3 energy=-2.2197311013555554 pbc="F F F"
Te       0.00000000       0.00000000       0.00000000       0.00000000       0.00000000       0.16824679
Te       0.00000000       0.00000000       4.76545455       0.00000000       0.00000000      -0.16824679
2
Properties=species:S:1:pos:R:3:forces:R:3 energy=-2.210005215746647 pbc="F F F"
Te       0.00000000       0.00000000       0.00000000       0.00000000       0.00000000       0.16269693
Te       0.00000000       0.00000000       4.82424242       0.00000000       0.00000000      -0.16269693
2
Properties=species:S:1:pos:R:3:forces:R:3 energy=-2.200584110889225 pbc="F F F"
Te       0.00000000       0.00000000       0.00000000       0.00000000       0.00000000       0.15804358
Te       0.00000000       0.00000000       4.88303030       0.00000000       0.00000000      -0.15804358
2
Properties=species:S:1:pos:R:3:forces:R:3 energy=-2.191403201795292 pbc="F F F"
Te       0.00000000       0.00000000       0.00000000       0.00000000       0.00000000       0.15443319
Te       0.00000000       0.00000000       4.94181818       0.00000000       0.00000000      -0.15443319
2
Properties=species:S:1:pos:R:3:forces:R:3 energy=-2.1824036240187614 pbc="F F F"
Te       0.00000000       0.00000000       0.00000000       0.00000000       0.00000000       0.15195264
Te       0.00000000       0.00000000       5.00060606       0.00000000       0.00000000      -0.15195264
2
Properties=species:S:1:pos:R:3:forces:R:3 energy=-2.1735189249806304 pbc="F F F"
Te       0.00000000       0.00000000       0.00000000       0.00000000       0.00000000       0.15043113
Te       0.00000000       0.00000000       5.05939394       0.00000000       0.00000000      -0.15043113
2
Properties=species:S:1:pos:R:3:forces:R:3 energy=-2.164707654454403 pbc="F F F"
Te       0.00000000       0.00000000       0.00000000       0.00000000       0.00000000       0.14933883
Te       0.00000000       0.00000000       5.11818182       0.00000000       0.00000000      -0.14933883
2
Properties=species:S:1:pos:R:3:forces:R:3 energy=-2.1559696926549816 pbc="F F F"
Te       0.00000000       0.00000000       0.00000000       0.00000000       0.00000000       0.14781208
Te       0.00000000       0.00000000       5.17696970       0.00000000       0.00000000      -0.14781208
2
Properties=species:S:1:pos:R:3:forces:R:3 energy=-2.147360067428874 pbc="F F F"
Te       0.00000000       0.00000000       0.00000000       0.00000000       0.00000000       0.14480969
Te       0.00000000       0.00000000       5.23575758       0.00000000       0.00000000      -0.14480969
2
Properties=species:S:1:pos:R:3:forces:R:3 energy=-2.1389913526951867 pbc="F F F"
Te       0.00000000       0.00000000       0.00000000       0.00000000       0.00000000       0.13933559
Te       0.00000000       0.00000000       5.29454545       0.00000000       0.00000000      -0.13933559
2
Properties=species:S:1:pos:R:3:forces:R:3 energy=-2.131037824515687 pbc="F F F"
Te       0.00000000       0.00000000       0.00000000       0.00000000       0.00000000       0.13069093
Te       0.00000000       0.00000000       5.35333333       0.00000000       0.00000000      -0.13069093
2
Properties=species:S:1:pos:R:3:forces:R:3 energy=-2.123693965174664 pbc="F F F"
Te       0.00000000       0.00000000       0.00000000       0.00000000       0.00000000       0.11866132
Te       0.00000000       0.00000000       5.41212121       0.00000000       0.00000000      -0.11866132
2
Properties=species:S:1:pos:R:3:forces:R:3 energy=-2.117145422837653 pbc="F F F"
Te       0.00000000       0.00000000       0.00000000       0.00000000       0.00000000       0.10362092
Te       0.00000000       0.00000000       5.47090909       0.00000000       0.00000000      -0.10362092
2
Properties=species:S:1:pos:R:3:forces:R:3 energy=-2.111549749539729 pbc="F F F"
Te       0.00000000       0.00000000       0.00000000       0.00000000       0.00000000       0.08648178
Te       0.00000000       0.00000000       5.52969697       0.00000000       0.00000000      -0.08648178
2
Properties=species:S:1:pos:R:3:forces:R:3 energy=-2.1069940101957574 pbc="F F F"
Te       0.00000000       0.00000000       0.00000000       0.00000000       0.00000000       0.06854428
Te       0.00000000       0.00000000       5.58848485       0.00000000       0.00000000      -0.06854428
2
Properties=species:S:1:pos:R:3:forces:R:3 energy=-2.103480243026847 pbc="F F F"
Te       0.00000000       0.00000000       0.00000000       0.00000000       0.00000000       0.05128746
Te       0.00000000       0.00000000       5.64727273       0.00000000       0.00000000      -0.05128746
2
Properties=species:S:1:pos:R:3:forces:R:3 energy=-2.10092407419034 pbc="F F F"
Te       0.00000000       0.00000000       0.00000000       0.00000000       0.00000000       0.03606836
Te       0.00000000       0.00000000       5.70606061       0.00000000       0.00000000      -0.03606836
2
Properties=species:S:1:pos:R:3:forces:R:3 energy=-2.0991757374205977 pbc="F F F"
Te       0.00000000       0.00000000       0.00000000       0.00000000       0.00000000       0.02391207
Te       0.00000000       0.00000000       5.76484848       0.00000000       0.00000000      -0.02391207
2
Properties=species:S:1:pos:R:3:forces:R:3 energy=-2.098039873858438 pbc="F F F"
Te       0.00000000       0.00000000       0.00000000       0.00000000       0.00000000       0.01534784
Te       0.00000000       0.00000000       5.82363636       0.00000000       0.00000000      -0.01534784
2
Properties=species:S:1:pos:R:3:forces:R:3 energy=-2.097302009184709 pbc="F F F"
Te       0.00000000       0.00000000       0.00000000       0.00000000       0.00000000       0.01026997
Te       0.00000000       0.00000000       5.88242424       0.00000000       0.00000000      -0.01026997
2
Properties=species:S:1:pos:R:3:forces:R:3 energy=-2.0967767569388647 pbc="F F F"
Te       0.00000000       0.00000000       0.00000000       0.00000000       0.00000000       0.00797385
Te       0.00000000       0.00000000       5.94121212       0.00000000       0.00000000      -0.00797385
2
Properties=species:S:1:pos:R:3:forces:R:3 energy=-2.096334031891377 pbc="F F F"
Te       0.00000000       0.00000000       0.00000000       0.00000000       0.00000000       0.00726031
Te       0.00000000       0.00000000       6.00000000       0.00000000       0.00000000      -0.00726031
