2
Properties=species:S:1:pos:R:3:forces:R:3 energy=1475.0232290663341 pbc="F F F"
U        0.00000000       0.00000000       0.00000000       0.00000000       0.00000000   -3457.64550781
U        0.00000000       0.00000000       0.18000000       0.00000000       0.00000000    3457.64550781
2
Properties=species:S:1:pos:R:3:forces:R:3 energy=1251.6575064100841 pbc="F F F"
U        0.00000000       0.00000000       0.00000000       0.00000000       0.00000000   -4089.34033203
U        0.00000000       0.00000000       0.23878788       0.00000000       0.00000000    4089.34033203
2
Properties=species:S:1:pos:R:3:forces:R:3 energy=1001.0347036757092 pbc="F F F"
U        0.00000000       0.00000000       0.00000000       0.00000000       0.00000000   -4373.11914062
U        0.00000000       0.00000000       0.29757576       0.00000000       0.00000000    4373.11914062
2
Properties=species:S:1:pos:R:3:forces:R:3 energy=-26812.13949066023 pbc="F F F"
U        0.00000000       0.00000000       0.00000000       0.00000000       0.00000000 -2177213.00000000
U        0.00000000       0.00000000       0.35636364       0.00000000       0.00000000 2177213.00000000
2
Properties=species:S:1:pos:R:3:forces:R:3 energy=-76919.92464691022 pbc="F F F"
U        0.00000000       0.00000000       0.00000000       0.00000000       0.00000000 -369360.71875000
U        0.00000000       0.00000000       0.41515152       0.00000000       0.00000000  369360.71875000
2
Properties=species:S:1:pos:R:3:forces:R:3 energy=-34302.66683441023 pbc="F F F"
U        0.00000000       0.00000000       0.00000000       0.00000000       0.00000000 1194426.37500000
U        0.00000000       0.00000000       0.47393939       0.00000000       0.00000000 -1194426.37500000
2
Properties=species:S:1:pos:R:3:forces:R:3 energy=13411.137853115115 pbc="F F F"
U        0.00000000       0.00000000       0.00000000       0.00000000       0.00000000  205293.34375000
U        0.00000000       0.00000000       0.53272727       0.00000000       0.00000000 -205293.34375000
2
Properties=species:S:1:pos:R:3:forces:R:3 energy=11420.110509390457 pbc="F F F"
U        0.00000000       0.00000000       0.00000000       0.00000000       0.00000000 -114713.81250000
U        0.00000000       0.00000000       0.59151515       0.00000000       0.00000000  114713.81250000
2
Properties=species:S:1:pos:R:3:forces:R:3 energy=5995.68863442847 pbc="F F F"
U        0.00000000       0.00000000       0.00000000       0.00000000       0.00000000  -63300.54296875
U        0.00000000       0.00000000       0.65030303       0.00000000       0.00000000   63300.54296875
2
Properties=species:S:1:pos:R:3:forces:R:3 energy=3333.582433319952 pbc="F F F"
U        0.00000000       0.00000000       0.00000000       0.00000000       0.00000000  -29942.66601562
U        0.00000000       0.00000000       0.70909091       0.00000000       0.00000000   29942.66601562
2
Properties=species:S:1:pos:R:3:forces:R:3 energy=1900.2584588119475 pbc="F F F"
U        0.00000000       0.00000000       0.00000000       0.00000000       0.00000000  -17432.33789062
U        0.00000000       0.00000000       0.76787879       0.00000000       0.00000000   17432.33789062
2
Properties=species:S:1:pos:R:3:forces:R:3 energy=1140.4399775186905 pbc="F F F"
U        0.00000000       0.00000000       0.00000000       0.00000000       0.00000000  -10132.90039062
U        0.00000000       0.00000000       0.82666667       0.00000000       0.00000000   10132.90039062
2
Properties=species:S:1:pos:R:3:forces:R:3 energy=605.2298947262898 pbc="F F F"
U        0.00000000       0.00000000       0.00000000       0.00000000       0.00000000   -7347.77294922
U        0.00000000       0.00000000       0.88545455       0.00000000       0.00000000    7347.77294922
2
Properties=species:S:1:pos:R:3:forces:R:3 energy=269.1034606915576 pbc="F F F"
U        0.00000000       0.00000000       0.00000000       0.00000000       0.00000000   -4178.62597656
U        0.00000000       0.00000000       0.94424242       0.00000000       0.00000000    4178.62597656
2
Properties=species:S:1:pos:R:3:forces:R:3 energy=97.9283817513357 pbc="F F F"
U        0.00000000       0.00000000       0.00000000       0.00000000       0.00000000   -1826.05346680
U        0.00000000       0.00000000       1.00303030       0.00000000       0.00000000    1826.05346680
2
Properties=species:S:1:pos:R:3:forces:R:3 energy=31.147246737119083 pbc="F F F"
U        0.00000000       0.00000000       0.00000000       0.00000000       0.00000000    -639.27197266
U        0.00000000       0.00000000       1.06181818       0.00000000       0.00000000     639.27197266
2
Properties=species:S:1:pos:R:3:forces:R:3 energy=9.652443077058315 pbc="F F F"
U        0.00000000       0.00000000       0.00000000       0.00000000       0.00000000    -149.42912292
U        0.00000000       0.00000000       1.12060606       0.00000000       0.00000000     149.42912292
2
Properties=species:S:1:pos:R:3:forces:R:3 energy=3.400393640295975 pbc="F F F"
U        0.00000000       0.00000000       0.00000000       0.00000000       0.00000000     -92.27432251
U        0.00000000       0.00000000       1.17939394       0.00000000       0.00000000      92.27432251
2
Properties=species:S:1:pos:R:3:forces:R:3 energy=1.3437294615500304 pbc="F F F"
U        0.00000000       0.00000000       0.00000000       0.00000000       0.00000000       8.82414436
U        0.00000000       0.00000000       1.23818182       0.00000000       0.00000000      -8.82414436
2
Properties=species:S:1:pos:R:3:forces:R:3 energy=0.9614850026624726 pbc="F F F"
U        0.00000000       0.00000000       0.00000000       0.00000000       0.00000000     -19.41144943
U        0.00000000       0.00000000       1.29696970       0.00000000       0.00000000      19.41144943
2
Properties=species:S:1:pos:R:3:forces:R:3 energy=-0.1366861494247107 pbc="F F F"
U        0.00000000       0.00000000       0.00000000       0.00000000       0.00000000     -13.32379627
U        0.00000000       0.00000000       1.35575758       0.00000000       0.00000000      13.32379627
2
Properties=species:S:1:pos:R:3:forces:R:3 energy=-0.7907287581613268 pbc="F F F"
U        0.00000000       0.00000000       0.00000000       0.00000000       0.00000000     -11.44901848
U        0.00000000       0.00000000       1.41454545       0.00000000       0.00000000      11.44901848
2
Properties=species:S:1:pos:R:3:forces:R:3 energy=-1.4449004710544104 pbc="F F F"
U        0.00000000       0.00000000       0.00000000       0.00000000       0.00000000      -7.56864691
U        0.00000000       0.00000000       1.47333333       0.00000000       0.00000000       7.56864691
2
Properties=species:S:1:pos:R:3:forces:R:3 energy=-1.6852683610981067 pbc="F F F"
U        0.00000000       0.00000000       0.00000000       0.00000000       0.00000000      -3.48171687
U        0.00000000       0.00000000       1.53212121       0.00000000       0.00000000       3.48171687
2
Properties=species:S:1:pos:R:3:forces:R:3 energy=-1.9878702807055066 pbc="F F F"
U        0.00000000       0.00000000       0.00000000       0.00000000       0.00000000      -6.99489307
U        0.00000000       0.00000000       1.59090909       0.00000000       0.00000000       6.99489307
2
Properties=species:S:1:pos:R:3:forces:R:3 energy=-2.50692476419849 pbc="F F F"
U        0.00000000       0.00000000       0.00000000       0.00000000       0.00000000     -10.38158798
U        0.00000000       0.00000000       1.64969697       0.00000000       0.00000000      10.38158798
2
Properties=species:S:1:pos:R:3:forces:R:3 energy=-3.2874736594715954 pbc="F F F"
U        0.00000000       0.00000000       0.00000000       0.00000000       0.00000000     -16.79650497
U        0.00000000       0.00000000       1.70848485       0.00000000       0.00000000      16.79650497
2
Properties=species:S:1:pos:R:3:forces:R:3 energy=-4.436560996426197 pbc="F F F"
U        0.00000000       0.00000000       0.00000000       0.00000000       0.00000000     -21.78794479
U        0.00000000       0.00000000       1.76727273       0.00000000       0.00000000      21.78794479
2
Properties=species:S:1:pos:R:3:forces:R:3 energy=-5.81920540425488 pbc="F F F"
U        0.00000000       0.00000000       0.00000000       0.00000000       0.00000000     -24.94964981
U        0.00000000       0.00000000       1.82606061       0.00000000       0.00000000      24.94964981
2
Properties=species:S:1:pos:R:3:forces:R:3 energy=-7.314986186270546 pbc="F F F"
U        0.00000000       0.00000000       0.00000000       0.00000000       0.00000000     -25.66822052
U        0.00000000       0.00000000       1.88484848       0.00000000       0.00000000      25.66822052
2
Properties=species:S:1:pos:R:3:forces:R:3 energy=-8.810774401595468 pbc="F F F"
U        0.00000000       0.00000000       0.00000000       0.00000000       0.00000000     -24.81838036
U        0.00000000       0.00000000       1.94363636       0.00000000       0.00000000      24.81838036
2
Properties=species:S:1:pos:R:3:forces:R:3 energy=-10.190761259180247 pbc="F F F"
U        0.00000000       0.00000000       0.00000000       0.00000000       0.00000000     -21.81647873
U        0.00000000       0.00000000       2.00242424       0.00000000       0.00000000      21.81647873
2
Properties=species:S:1:pos:R:3:forces:R:3 energy=-11.3631552512747 pbc="F F F"
U        0.00000000       0.00000000       0.00000000       0.00000000       0.00000000     -18.07100677
U        0.00000000       0.00000000       2.06121212       0.00000000       0.00000000      18.07100677
2
Properties=species:S:1:pos:R:3:forces:R:3 energy=-12.299204662463016 pbc="F F F"
U        0.00000000       0.00000000       0.00000000       0.00000000       0.00000000     -13.64225483
U        0.00000000       0.00000000       2.12000000       0.00000000       0.00000000      13.64225483
2
Properties=species:S:1:pos:R:3:forces:R:3 energy=-12.976203920439943 pbc="F F F"
U        0.00000000       0.00000000       0.00000000       0.00000000       0.00000000      -9.56682777
U        0.00000000       0.00000000       2.17878788       0.00000000       0.00000000       9.56682777
2
Properties=species:S:1:pos:R:3:forces:R:3 energy=-13.430648794810084 pbc="F F F"
U        0.00000000       0.00000000       0.00000000       0.00000000       0.00000000      -5.91097689
U        0.00000000       0.00000000       2.23757576       0.00000000       0.00000000       5.91097689
2
Properties=species:S:1:pos:R:3:forces:R:3 energy=-13.688793369296118 pbc="F F F"
U        0.00000000       0.00000000       0.00000000       0.00000000       0.00000000      -3.06972742
U        0.00000000       0.00000000       2.29636364       0.00000000       0.00000000       3.06972742
2
Properties=species:S:1:pos:R:3:forces:R:3 energy=-13.806385110215055 pbc="F F F"
U        0.00000000       0.00000000       0.00000000       0.00000000       0.00000000      -1.00725031
U        0.00000000       0.00000000       2.35515152       0.00000000       0.00000000       1.00725031
2
Properties=species:S:1:pos:R:3:forces:R:3 energy=-13.817355078166335 pbc="F F F"
U        0.00000000       0.00000000       0.00000000       0.00000000       0.00000000       0.54223633
U        0.00000000       0.00000000       2.41393939       0.00000000       0.00000000      -0.54223633
2
Properties=species:S:1:pos:R:3:forces:R:3 energy=-13.752724698752617 pbc="F F F"
U        0.00000000       0.00000000       0.00000000       0.00000000       0.00000000       1.57150269
U        0.00000000       0.00000000       2.47272727       0.00000000       0.00000000      -1.57150269
2
Properties=species:S:1:pos:R:3:forces:R:3 energy=-13.64147064381446 pbc="F F F"
U        0.00000000       0.00000000       0.00000000       0.00000000       0.00000000       2.15365028
U        0.00000000       0.00000000       2.53151515       0.00000000       0.00000000      -2.15365028
2
Properties=species:S:1:pos:R:3:forces:R:3 energy=-13.505976669916343 pbc="F F F"
U        0.00000000       0.00000000       0.00000000       0.00000000       0.00000000       2.39898658
U        0.00000000       0.00000000       2.59030303       0.00000000       0.00000000      -2.39898658
2
Properties=species:S:1:pos:R:3:forces:R:3 energy=-13.365402262129296 pbc="F F F"
U        0.00000000       0.00000000       0.00000000       0.00000000       0.00000000       2.34771276
U        0.00000000       0.00000000       2.64909091       0.00000000       0.00000000      -2.34771276
2
Properties=species:S:1:pos:R:3:forces:R:3 energy=-13.231836110716735 pbc="F F F"
U        0.00000000       0.00000000       0.00000000       0.00000000       0.00000000       2.19574404
U        0.00000000       0.00000000       2.70787879       0.00000000       0.00000000      -2.19574404
2
Properties=species:S:1:pos:R:3:forces:R:3 energy=-13.106588504160632 pbc="F F F"
U        0.00000000       0.00000000       0.00000000       0.00000000       0.00000000       2.07177901
U        0.00000000       0.00000000       2.76666667       0.00000000       0.00000000      -2.07177901
2
Properties=species:S:1:pos:R:3:forces:R:3 energy=-12.98784549388241 pbc="F F F"
U        0.00000000       0.00000000       0.00000000       0.00000000       0.00000000       1.96762061
U        0.00000000       0.00000000       2.82545455       0.00000000       0.00000000      -1.96762061
2
Properties=species:S:1:pos:R:3:forces:R:3 energy=-12.875573349812589 pbc="F F F"
U        0.00000000       0.00000000       0.00000000       0.00000000       0.00000000       1.84735286
U        0.00000000       0.00000000       2.88424242       0.00000000       0.00000000      -1.84735286
2
Properties=species:S:1:pos:R:3:forces:R:3 energy=-12.771225069455808 pbc="F F F"
U        0.00000000       0.00000000       0.00000000       0.00000000       0.00000000       1.69866657
U        0.00000000       0.00000000       2.94303030       0.00000000       0.00000000      -1.69866657
2
Properties=species:S:1:pos:R:3:forces:R:3 energy=-12.676044057379002 pbc="F F F"
U        0.00000000       0.00000000       0.00000000       0.00000000       0.00000000       1.54012883
U        0.00000000       0.00000000       3.00181818       0.00000000       0.00000000      -1.54012883
2
Properties=species:S:1:pos:R:3:forces:R:3 energy=-12.589967555130674 pbc="F F F"
U        0.00000000       0.00000000       0.00000000       0.00000000       0.00000000       1.38919234
U        0.00000000       0.00000000       3.06060606       0.00000000       0.00000000      -1.38919234
2
Properties=species:S:1:pos:R:3:forces:R:3 energy=-12.512807210689196 pbc="F F F"
U        0.00000000       0.00000000       0.00000000       0.00000000       0.00000000       1.23341191
U        0.00000000       0.00000000       3.11939394       0.00000000       0.00000000      -1.23341191
2
Properties=species:S:1:pos:R:3:forces:R:3 energy=-12.445239312513133 pbc="F F F"
U        0.00000000       0.00000000       0.00000000       0.00000000       0.00000000       1.06391621
U        0.00000000       0.00000000       3.17818182       0.00000000       0.00000000      -1.06391621
2
Properties=species:S:1:pos:R:3:forces:R:3 energy=-12.38768093971631 pbc="F F F"
U        0.00000000       0.00000000       0.00000000       0.00000000       0.00000000       0.89628053
U        0.00000000       0.00000000       3.23696970       0.00000000       0.00000000      -0.89628053
2
Properties=species:S:1:pos:R:3:forces:R:3 energy=-12.339476658601642 pbc="F F F"
U        0.00000000       0.00000000       0.00000000       0.00000000       0.00000000       0.74755359
U        0.00000000       0.00000000       3.29575758       0.00000000       0.00000000      -0.74755359
2
Properties=species:S:1:pos:R:3:forces:R:3 energy=-12.299290492148785 pbc="F F F"
U        0.00000000       0.00000000       0.00000000       0.00000000       0.00000000       0.62381744
U        0.00000000       0.00000000       3.35454545       0.00000000       0.00000000      -0.62381744
2
Properties=species:S:1:pos:R:3:forces:R:3 energy=-12.265672621297663 pbc="F F F"
U        0.00000000       0.00000000       0.00000000       0.00000000       0.00000000       0.52368611
U        0.00000000       0.00000000       3.41333333       0.00000000       0.00000000      -0.52368611
2
Properties=species:S:1:pos:R:3:forces:R:3 energy=-12.237302774639764 pbc="F F F"
U        0.00000000       0.00000000       0.00000000       0.00000000       0.00000000       0.44495553
U        0.00000000       0.00000000       3.47212121       0.00000000       0.00000000      -0.44495553
2
Properties=species:S:1:pos:R:3:forces:R:3 energy=-12.212934215059253 pbc="F F F"
U        0.00000000       0.00000000       0.00000000       0.00000000       0.00000000       0.38746056
U        0.00000000       0.00000000       3.53090909       0.00000000       0.00000000      -0.38746056
2
Properties=species:S:1:pos:R:3:forces:R:3 energy=-12.191341734468338 pbc="F F F"
U        0.00000000       0.00000000       0.00000000       0.00000000       0.00000000       0.35048160
U        0.00000000       0.00000000       3.58969697       0.00000000       0.00000000      -0.35048160
2
Properties=species:S:1:pos:R:3:forces:R:3 energy=-12.171395834335655 pbc="F F F"
U        0.00000000       0.00000000       0.00000000       0.00000000       0.00000000       0.33056670
U        0.00000000       0.00000000       3.64848485       0.00000000       0.00000000      -0.33056670
2
Properties=species:S:1:pos:R:3:forces:R:3 energy=-12.152236677878193 pbc="F F F"
U        0.00000000       0.00000000       0.00000000       0.00000000       0.00000000       0.32281566
U        0.00000000       0.00000000       3.70727273       0.00000000       0.00000000      -0.32281566
2
Properties=species:S:1:pos:R:3:forces:R:3 energy=-12.13328288854204 pbc="F F F"
U        0.00000000       0.00000000       0.00000000       0.00000000       0.00000000       0.32316008
U        0.00000000       0.00000000       3.76606061       0.00000000       0.00000000      -0.32316008
2
Properties=species:S:1:pos:R:3:forces:R:3 energy=-12.114129348459421 pbc="F F F"
U        0.00000000       0.00000000       0.00000000       0.00000000       0.00000000       0.32918656
U        0.00000000       0.00000000       3.82484848       0.00000000       0.00000000      -0.32918656
2
Properties=species:S:1:pos:R:3:forces:R:3 energy=-12.094489296748112 pbc="F F F"
U        0.00000000       0.00000000       0.00000000       0.00000000       0.00000000       0.33957410
U        0.00000000       0.00000000       3.88363636       0.00000000       0.00000000      -0.33957410
2
Properties=species:S:1:pos:R:3:forces:R:3 energy=-12.074140911078416 pbc="F F F"
U        0.00000000       0.00000000       0.00000000       0.00000000       0.00000000       0.35324982
U        0.00000000       0.00000000       3.94242424       0.00000000       0.00000000      -0.35324982
2
Properties=species:S:1:pos:R:3:forces:R:3 energy=-12.052919475538028 pbc="F F F"
U        0.00000000       0.00000000       0.00000000       0.00000000       0.00000000       0.36899573
U        0.00000000       0.00000000       4.00121212       0.00000000       0.00000000      -0.36899573
2
Properties=species:S:1:pos:R:3:forces:R:3 energy=-12.03073859588583 pbc="F F F"
U        0.00000000       0.00000000       0.00000000       0.00000000       0.00000000       0.38554654
U        0.00000000       0.00000000       4.06000000       0.00000000       0.00000000      -0.38554654
2
Properties=species:S:1:pos:R:3:forces:R:3 energy=-12.007593919214491 pbc="F F F"
U        0.00000000       0.00000000       0.00000000       0.00000000       0.00000000       0.40183282
U        0.00000000       0.00000000       4.11878788       0.00000000       0.00000000      -0.40183282
2
Properties=species:S:1:pos:R:3:forces:R:3 energy=-11.983514661287082 pbc="F F F"
U        0.00000000       0.00000000       0.00000000       0.00000000       0.00000000       0.41701859
U        0.00000000       0.00000000       4.17757576       0.00000000       0.00000000      -0.41701859
2
Properties=species:S:1:pos:R:3:forces:R:3 energy=-11.958595014433076 pbc="F F F"
U        0.00000000       0.00000000       0.00000000       0.00000000       0.00000000       0.43037659
U        0.00000000       0.00000000       4.23636364       0.00000000       0.00000000      -0.43037659
2
Properties=species:S:1:pos:R:3:forces:R:3 energy=-11.932963737676179 pbc="F F F"
U        0.00000000       0.00000000       0.00000000       0.00000000       0.00000000       0.44117627
U        0.00000000       0.00000000       4.29515152       0.00000000       0.00000000      -0.44117627
2
Properties=species:S:1:pos:R:3:forces:R:3 energy=-11.906788912434614 pbc="F F F"
U        0.00000000       0.00000000       0.00000000       0.00000000       0.00000000       0.44872013
U        0.00000000       0.00000000       4.35393939       0.00000000       0.00000000      -0.44872013
2
Properties=species:S:1:pos:R:3:forces:R:3 energy=-11.880278940544956 pbc="F F F"
U        0.00000000       0.00000000       0.00000000       0.00000000       0.00000000       0.45246366
U        0.00000000       0.00000000       4.41272727       0.00000000       0.00000000      -0.45246366
2
Properties=species:S:1:pos:R:3:forces:R:3 energy=-11.853671201540648 pbc="F F F"
U        0.00000000       0.00000000       0.00000000       0.00000000       0.00000000       0.45212677
U        0.00000000       0.00000000       4.47151515       0.00000000       0.00000000      -0.45212677
2
Properties=species:S:1:pos:R:3:forces:R:3 energy=-11.827199596047002 pbc="F F F"
U        0.00000000       0.00000000       0.00000000       0.00000000       0.00000000       0.44770083
U        0.00000000       0.00000000       4.53030303       0.00000000       0.00000000      -0.44770083
2
Properties=species:S:1:pos:R:3:forces:R:3 energy=-11.801107998591961 pbc="F F F"
U        0.00000000       0.00000000       0.00000000       0.00000000       0.00000000       0.43938705
U        0.00000000       0.00000000       4.58909091       0.00000000       0.00000000      -0.43938705
2
Properties=species:S:1:pos:R:3:forces:R:3 energy=-11.775605460255791 pbc="F F F"
U        0.00000000       0.00000000       0.00000000       0.00000000       0.00000000       0.42755333
U        0.00000000       0.00000000       4.64787879       0.00000000       0.00000000      -0.42755333
2
Properties=species:S:1:pos:R:3:forces:R:3 energy=-11.750894812564933 pbc="F F F"
U        0.00000000       0.00000000       0.00000000       0.00000000       0.00000000       0.41269392
U        0.00000000       0.00000000       4.70666667       0.00000000       0.00000000      -0.41269392
2
Properties=species:S:1:pos:R:3:forces:R:3 energy=-11.727133617530184 pbc="F F F"
U        0.00000000       0.00000000       0.00000000       0.00000000       0.00000000       0.39544412
U        0.00000000       0.00000000       4.76545455       0.00000000       0.00000000      -0.39544412
2
Properties=species:S:1:pos:R:3:forces:R:3 energy=-11.704432323654505 pbc="F F F"
U        0.00000000       0.00000000       0.00000000       0.00000000       0.00000000       0.37658000
U        0.00000000       0.00000000       4.82424242       0.00000000       0.00000000      -0.37658000
2
Properties=species:S:1:pos:R:3:forces:R:3 energy=-11.682869518386445 pbc="F F F"
U        0.00000000       0.00000000       0.00000000       0.00000000       0.00000000       0.35696474
U        0.00000000       0.00000000       4.88303030       0.00000000       0.00000000      -0.35696474
2
Properties=species:S:1:pos:R:3:forces:R:3 energy=-11.662461372528146 pbc="F F F"
U        0.00000000       0.00000000       0.00000000       0.00000000       0.00000000       0.33740318
U        0.00000000       0.00000000       4.94181818       0.00000000       0.00000000      -0.33740318
2
Properties=species:S:1:pos:R:3:forces:R:3 energy=-11.64318452208329 pbc="F F F"
U        0.00000000       0.00000000       0.00000000       0.00000000       0.00000000       0.31851512
U        0.00000000       0.00000000       5.00060606       0.00000000       0.00000000      -0.31851512
2
Properties=species:S:1:pos:R:3:forces:R:3 energy=-11.624993335765113 pbc="F F F"
U        0.00000000       0.00000000       0.00000000       0.00000000       0.00000000       0.30055270
U        0.00000000       0.00000000       5.05939394       0.00000000       0.00000000      -0.30055270
2
Properties=species:S:1:pos:R:3:forces:R:3 energy=-11.607834996387412 pbc="F F F"
U        0.00000000       0.00000000       0.00000000       0.00000000       0.00000000       0.28336141
U        0.00000000       0.00000000       5.11818182       0.00000000       0.00000000      -0.28336141
2
Properties=species:S:1:pos:R:3:forces:R:3 energy=-11.591672420726375 pbc="F F F"
U        0.00000000       0.00000000       0.00000000       0.00000000       0.00000000       0.26641047
U        0.00000000       0.00000000       5.17696970       0.00000000       0.00000000      -0.26641047
2
Properties=species:S:1:pos:R:3:forces:R:3 energy=-11.576518579124677 pbc="F F F"
U        0.00000000       0.00000000       0.00000000       0.00000000       0.00000000       0.24895768
U        0.00000000       0.00000000       5.23575758       0.00000000       0.00000000      -0.24895768
2
Properties=species:S:1:pos:R:3:forces:R:3 energy=-11.56242486766599 pbc="F F F"
U        0.00000000       0.00000000       0.00000000       0.00000000       0.00000000       0.23024124
U        0.00000000       0.00000000       5.29454545       0.00000000       0.00000000      -0.23024124
2
Properties=species:S:1:pos:R:3:forces:R:3 energy=-11.549485030578223 pbc="F F F"
U        0.00000000       0.00000000       0.00000000       0.00000000       0.00000000       0.20970447
U        0.00000000       0.00000000       5.35333333       0.00000000       0.00000000      -0.20970447
2
Properties=species:S:1:pos:R:3:forces:R:3 energy=-11.537808254612019 pbc="F F F"
U        0.00000000       0.00000000       0.00000000       0.00000000       0.00000000       0.18719271
U        0.00000000       0.00000000       5.41212121       0.00000000       0.00000000      -0.18719271
2
Properties=species:S:1:pos:R:3:forces:R:3 energy=-11.527505741572616 pbc="F F F"
U        0.00000000       0.00000000       0.00000000       0.00000000       0.00000000       0.16302273
U        0.00000000       0.00000000       5.47090909       0.00000000       0.00000000      -0.16302273
2
Properties=species:S:1:pos:R:3:forces:R:3 energy=-11.518658283393076 pbc="F F F"
U        0.00000000       0.00000000       0.00000000       0.00000000       0.00000000       0.13799703
U        0.00000000       0.00000000       5.52969697       0.00000000       0.00000000      -0.13799703
2
Properties=species:S:1:pos:R:3:forces:R:3 energy=-11.511277969441815 pbc="F F F"
U        0.00000000       0.00000000       0.00000000       0.00000000       0.00000000       0.11329984
U        0.00000000       0.00000000       5.58848485       0.00000000       0.00000000      -0.11329984
2
Properties=species:S:1:pos:R:3:forces:R:3 energy=-11.505304321140182 pbc="F F F"
U        0.00000000       0.00000000       0.00000000       0.00000000       0.00000000       0.09033373
U        0.00000000       0.00000000       5.64727273       0.00000000       0.00000000      -0.09033373
2
Properties=species:S:1:pos:R:3:forces:R:3 energy=-11.50059653585504 pbc="F F F"
U        0.00000000       0.00000000       0.00000000       0.00000000       0.00000000       0.07042757
U        0.00000000       0.00000000       5.70606061       0.00000000       0.00000000      -0.07042757
2
Properties=species:S:1:pos:R:3:forces:R:3 energy=-11.496941135300236 pbc="F F F"
U        0.00000000       0.00000000       0.00000000       0.00000000       0.00000000       0.05463488
U        0.00000000       0.00000000       5.76484848       0.00000000       0.00000000      -0.05463488
2
Properties=species:S:1:pos:R:3:forces:R:3 energy=-11.494076666034156 pbc="F F F"
U        0.00000000       0.00000000       0.00000000       0.00000000       0.00000000       0.04351179
U        0.00000000       0.00000000       5.82363636       0.00000000       0.00000000      -0.04351179
2
Properties=species:S:1:pos:R:3:forces:R:3 energy=-11.491737429094107 pbc="F F F"
U        0.00000000       0.00000000       0.00000000       0.00000000       0.00000000       0.03689428
U        0.00000000       0.00000000       5.88242424       0.00000000       0.00000000      -0.03689428
2
Properties=species:S:1:pos:R:3:forces:R:3 energy=-11.489670757007794 pbc="F F F"
U        0.00000000       0.00000000       0.00000000       0.00000000       0.00000000       0.03385902
U        0.00000000       0.00000000       5.94121212       0.00000000       0.00000000      -0.03385902
2
Properties=species:S:1:pos:R:3:forces:R:3 energy=-11.487715053528323 pbc="F F F"
U        0.00000000       0.00000000       0.00000000       0.00000000       0.00000000       0.03283592
U        0.00000000       0.00000000       6.00000000       0.00000000       0.00000000      -0.03283592
