2
Properties=species:S:1:pos:R:3:forces:R:3 energy=-33652652.05530308 pbc="F F F"
V        0.00000000       0.00000000       0.00000000       0.00000000       0.00000000 296471424.00000000
V        0.00000000       0.00000000       0.18000000       0.00000000       0.00000000 -296471424.00000000
2
Properties=species:S:1:pos:R:3:forces:R:3 energy=-18280062.055303086 pbc="F F F"
V        0.00000000       0.00000000       0.00000000       0.00000000       0.00000000 219244192.00000000
V        0.00000000       0.00000000       0.23878788       0.00000000       0.00000000 -219244192.00000000
2
Properties=species:S:1:pos:R:3:forces:R:3 energy=-8166172.055303085 pbc="F F F"
V        0.00000000       0.00000000       0.00000000       0.00000000       0.00000000 126350160.00000000
V        0.00000000       0.00000000       0.29757576       0.00000000       0.00000000 -126350160.00000000
2
Properties=species:S:1:pos:R:3:forces:R:3 energy=-2929649.8053030786 pbc="F F F"
V        0.00000000       0.00000000       0.00000000       0.00000000       0.00000000 56704292.00000000
V        0.00000000       0.00000000       0.35636364       0.00000000       0.00000000 -56704292.00000000
2
Properties=species:S:1:pos:R:3:forces:R:3 energy=-842420.4928030787 pbc="F F F"
V        0.00000000       0.00000000       0.00000000       0.00000000       0.00000000 19521534.00000000
V        0.00000000       0.00000000       0.41515152       0.00000000       0.00000000 -19521534.00000000
2
Properties=species:S:1:pos:R:3:forces:R:3 energy=-222936.14905305978 pbc="F F F"
V        0.00000000       0.00000000       0.00000000       0.00000000       0.00000000 3738871.50000000
V        0.00000000       0.00000000       0.47393939       0.00000000       0.00000000 -3738871.50000000
2
Properties=species:S:1:pos:R:3:forces:R:3 energy=-72936.61780303443 pbc="F F F"
V        0.00000000       0.00000000       0.00000000       0.00000000       0.00000000 1491007.00000000
V        0.00000000       0.00000000       0.53272727       0.00000000       0.00000000 -1491007.00000000
2
Properties=species:S:1:pos:R:3:forces:R:3 energy=-21021.545537365084 pbc="F F F"
V        0.00000000       0.00000000       0.00000000       0.00000000       0.00000000  371637.09375000
V        0.00000000       0.00000000       0.59151515       0.00000000       0.00000000 -371637.09375000
2
Properties=species:S:1:pos:R:3:forces:R:3 energy=-7962.482060726555 pbc="F F F"
V        0.00000000       0.00000000       0.00000000       0.00000000       0.00000000  128826.61718750
V        0.00000000       0.00000000       0.65030303       0.00000000       0.00000000 -128826.61718750
2
Properties=species:S:1:pos:R:3:forces:R:3 energy=-3444.876347709217 pbc="F F F"
V        0.00000000       0.00000000       0.00000000       0.00000000       0.00000000   44848.82812500
V        0.00000000       0.00000000       0.70909091       0.00000000       0.00000000  -44848.82812500
2
Properties=species:S:1:pos:R:3:forces:R:3 energy=-1586.3418016207102 pbc="F F F"
V        0.00000000       0.00000000       0.00000000       0.00000000       0.00000000   21664.51562500
V        0.00000000       0.00000000       0.76787879       0.00000000       0.00000000  -21664.51562500
2
Properties=species:S:1:pos:R:3:forces:R:3 energy=-698.6321455802231 pbc="F F F"
V        0.00000000       0.00000000       0.00000000       0.00000000       0.00000000    9367.01074219
V        0.00000000       0.00000000       0.82666667       0.00000000       0.00000000   -9367.01074219
2
Properties=species:S:1:pos:R:3:forces:R:3 energy=-321.32486368693685 pbc="F F F"
V        0.00000000       0.00000000       0.00000000       0.00000000       0.00000000    4314.91455078
V        0.00000000       0.00000000       0.88545455       0.00000000       0.00000000   -4314.91455078
2
Properties=species:S:1:pos:R:3:forces:R:3 energy=-136.04111068165827 pbc="F F F"
V        0.00000000       0.00000000       0.00000000       0.00000000       0.00000000    2255.75854492
V        0.00000000       0.00000000       0.94424242       0.00000000       0.00000000   -2255.75854492
2
Properties=species:S:1:pos:R:3:forces:R:3 energy=-36.75660979297499 pbc="F F F"
V        0.00000000       0.00000000       0.00000000       0.00000000       0.00000000    1197.42395020
V        0.00000000       0.00000000       1.00303030       0.00000000       0.00000000   -1197.42395020
2
Properties=species:S:1:pos:R:3:forces:R:3 energy=5.993355000111006 pbc="F F F"
V        0.00000000       0.00000000       0.00000000       0.00000000       0.00000000     316.09826660
V        0.00000000       0.00000000       1.06181818       0.00000000       0.00000000    -316.09826660
2
Properties=species:S:1:pos:R:3:forces:R:3 energy=14.594617520197477 pbc="F F F"
V        0.00000000       0.00000000       0.00000000       0.00000000       0.00000000      33.34368515
V        0.00000000       0.00000000       1.12060606       0.00000000       0.00000000     -33.34368515
2
Properties=species:S:1:pos:R:3:forces:R:3 energy=12.215392641285788 pbc="F F F"
V        0.00000000       0.00000000       0.00000000       0.00000000       0.00000000     -93.73600006
V        0.00000000       0.00000000       1.17939394       0.00000000       0.00000000      93.73600006
2
Properties=species:S:1:pos:R:3:forces:R:3 energy=6.94842719936539 pbc="F F F"
V        0.00000000       0.00000000       0.00000000       0.00000000       0.00000000     -85.00179291
V        0.00000000       0.00000000       1.23818182       0.00000000       0.00000000      85.00179291
2
Properties=species:S:1:pos:R:3:forces:R:3 energy=2.8556853561833457 pbc="F F F"
V        0.00000000       0.00000000       0.00000000       0.00000000       0.00000000     -61.49494934
V        0.00000000       0.00000000       1.29696970       0.00000000       0.00000000      61.49494934
2
Properties=species:S:1:pos:R:3:forces:R:3 energy=-0.3432377934318337 pbc="F F F"
V        0.00000000       0.00000000       0.00000000       0.00000000       0.00000000     -47.57812881
V        0.00000000       0.00000000       1.35575758       0.00000000       0.00000000      47.57812881
2
Properties=species:S:1:pos:R:3:forces:R:3 energy=-2.8326949658449 pbc="F F F"
V        0.00000000       0.00000000       0.00000000       0.00000000       0.00000000     -37.68121719
V        0.00000000       0.00000000       1.41454545       0.00000000       0.00000000      37.68121719
2
Properties=species:S:1:pos:R:3:forces:R:3 energy=-4.767352858950001 pbc="F F F"
V        0.00000000       0.00000000       0.00000000       0.00000000       0.00000000     -28.08234215
V        0.00000000       0.00000000       1.47333333       0.00000000       0.00000000      28.08234215
2
Properties=species:S:1:pos:R:3:forces:R:3 energy=-6.166365818651539 pbc="F F F"
V        0.00000000       0.00000000       0.00000000       0.00000000       0.00000000     -20.23947334
V        0.00000000       0.00000000       1.53212121       0.00000000       0.00000000      20.23947334
2
Properties=species:S:1:pos:R:3:forces:R:3 energy=-7.2337894029991325 pbc="F F F"
V        0.00000000       0.00000000       0.00000000       0.00000000       0.00000000     -16.61575890
V        0.00000000       0.00000000       1.59090909       0.00000000       0.00000000      16.61575890
2
Properties=species:S:1:pos:R:3:forces:R:3 energy=-8.139056920638787 pbc="F F F"
V        0.00000000       0.00000000       0.00000000       0.00000000       0.00000000     -13.93374920
V        0.00000000       0.00000000       1.64969697       0.00000000       0.00000000      13.93374920
2
Properties=species:S:1:pos:R:3:forces:R:3 energy=-8.873209257266902 pbc="F F F"
V        0.00000000       0.00000000       0.00000000       0.00000000       0.00000000     -11.02338123
V        0.00000000       0.00000000       1.70848485       0.00000000       0.00000000      11.02338123
2
Properties=species:S:1:pos:R:3:forces:R:3 energy=-9.416385853804677 pbc="F F F"
V        0.00000000       0.00000000       0.00000000       0.00000000       0.00000000      -7.40623665
V        0.00000000       0.00000000       1.76727273       0.00000000       0.00000000       7.40623665
2
Properties=species:S:1:pos:R:3:forces:R:3 energy=-9.769519416404849 pbc="F F F"
V        0.00000000       0.00000000       0.00000000       0.00000000       0.00000000      -4.73148537
V        0.00000000       0.00000000       1.82606061       0.00000000       0.00000000       4.73148537
2
Properties=species:S:1:pos:R:3:forces:R:3 energy=-9.957167942697106 pbc="F F F"
V        0.00000000       0.00000000       0.00000000       0.00000000       0.00000000      -1.86547065
V        0.00000000       0.00000000       1.88484848       0.00000000       0.00000000       1.86547065
2
Properties=species:S:1:pos:R:3:forces:R:3 energy=-10.017305609560717 pbc="F F F"
V        0.00000000       0.00000000       0.00000000       0.00000000       0.00000000      -0.29916620
V        0.00000000       0.00000000       1.94363636       0.00000000       0.00000000       0.29916620
2
Properties=species:S:1:pos:R:3:forces:R:3 energy=-10.000999420510468 pbc="F F F"
V        0.00000000       0.00000000       0.00000000       0.00000000       0.00000000       0.77328497
V        0.00000000       0.00000000       2.00242424       0.00000000       0.00000000      -0.77328497
2
Properties=species:S:1:pos:R:3:forces:R:3 energy=-9.935498254983244 pbc="F F F"
V        0.00000000       0.00000000       0.00000000       0.00000000       0.00000000       1.42001283
V        0.00000000       0.00000000       2.06121212       0.00000000       0.00000000      -1.42001283
2
Properties=species:S:1:pos:R:3:forces:R:3 energy=-9.837340551289353 pbc="F F F"
V        0.00000000       0.00000000       0.00000000       0.00000000       0.00000000       1.87356794
V        0.00000000       0.00000000       2.12000000       0.00000000       0.00000000      -1.87356794
2
Properties=species:S:1:pos:R:3:forces:R:3 energy=-9.721811698083647 pbc="F F F"
V        0.00000000       0.00000000       0.00000000       0.00000000       0.00000000       2.00317264
V        0.00000000       0.00000000       2.17878788       0.00000000       0.00000000      -2.00317264
2
Properties=species:S:1:pos:R:3:forces:R:3 energy=-9.604529145137972 pbc="F F F"
V        0.00000000       0.00000000       0.00000000       0.00000000       0.00000000       1.98161161
V        0.00000000       0.00000000       2.23757576       0.00000000       0.00000000      -1.98161161
2
Properties=species:S:1:pos:R:3:forces:R:3 energy=-9.49242772487002 pbc="F F F"
V        0.00000000       0.00000000       0.00000000       0.00000000       0.00000000       1.78102851
V        0.00000000       0.00000000       2.29636364       0.00000000       0.00000000      -1.78102851
2
Properties=species:S:1:pos:R:3:forces:R:3 energy=-9.39936305266409 pbc="F F F"
V        0.00000000       0.00000000       0.00000000       0.00000000       0.00000000       1.37642336
V        0.00000000       0.00000000       2.35515152       0.00000000       0.00000000      -1.37642336
2
Properties=species:S:1:pos:R:3:forces:R:3 energy=-9.3297316366942 pbc="F F F"
V        0.00000000       0.00000000       0.00000000       0.00000000       0.00000000       1.00593603
V        0.00000000       0.00000000       2.41393939       0.00000000       0.00000000      -1.00593603
2
Properties=species:S:1:pos:R:3:forces:R:3 energy=-9.280005185605827 pbc="F F F"
V        0.00000000       0.00000000       0.00000000       0.00000000       0.00000000       0.68673050
V        0.00000000       0.00000000       2.47272727       0.00000000       0.00000000      -0.68673050
2
Properties=species:S:1:pos:R:3:forces:R:3 energy=-9.24860541802864 pbc="F F F"
V        0.00000000       0.00000000       0.00000000       0.00000000       0.00000000       0.39507312
V        0.00000000       0.00000000       2.53151515       0.00000000       0.00000000      -0.39507312
2
Properties=species:S:1:pos:R:3:forces:R:3 energy=-9.231584692731653 pbc="F F F"
V        0.00000000       0.00000000       0.00000000       0.00000000       0.00000000       0.19576502
V        0.00000000       0.00000000       2.59030303       0.00000000       0.00000000      -0.19576502
2
Properties=species:S:1:pos:R:3:forces:R:3 energy=-9.224826322913565 pbc="F F F"
V        0.00000000       0.00000000       0.00000000       0.00000000       0.00000000       0.03964859
V        0.00000000       0.00000000       2.64909091       0.00000000       0.00000000      -0.03964859
2
Properties=species:S:1:pos:R:3:forces:R:3 energy=-9.226026822701247 pbc="F F F"
V        0.00000000       0.00000000       0.00000000       0.00000000       0.00000000      -0.07149079
V        0.00000000       0.00000000       2.70787879       0.00000000       0.00000000       0.07149079
2
Properties=species:S:1:pos:R:3:forces:R:3 energy=-9.232271838725257 pbc="F F F"
V        0.00000000       0.00000000       0.00000000       0.00000000       0.00000000      -0.13430375
V        0.00000000       0.00000000       2.76666667       0.00000000       0.00000000       0.13430375
2
Properties=species:S:1:pos:R:3:forces:R:3 energy=-9.241142636125758 pbc="F F F"
V        0.00000000       0.00000000       0.00000000       0.00000000       0.00000000      -0.16177905
V        0.00000000       0.00000000       2.82545455       0.00000000       0.00000000       0.16177905
2
Properties=species:S:1:pos:R:3:forces:R:3 energy=-9.250472104363968 pbc="F F F"
V        0.00000000       0.00000000       0.00000000       0.00000000       0.00000000      -0.14711097
V        0.00000000       0.00000000       2.88424242       0.00000000       0.00000000       0.14711097
2
Properties=species:S:1:pos:R:3:forces:R:3 energy=-9.257380354510822 pbc="F F F"
V        0.00000000       0.00000000       0.00000000       0.00000000       0.00000000      -0.07961363
V        0.00000000       0.00000000       2.94303030       0.00000000       0.00000000       0.07961363
2
Properties=species:S:1:pos:R:3:forces:R:3 energy=-9.25915833514704 pbc="F F F"
V        0.00000000       0.00000000       0.00000000       0.00000000       0.00000000       0.02160184
V        0.00000000       0.00000000       3.00181818       0.00000000       0.00000000      -0.02160184
2
Properties=species:S:1:pos:R:3:forces:R:3 energy=-9.254906077950546 pbc="F F F"
V        0.00000000       0.00000000       0.00000000       0.00000000       0.00000000       0.12020896
V        0.00000000       0.00000000       3.06060606       0.00000000       0.00000000      -0.12020896
2
Properties=species:S:1:pos:R:3:forces:R:3 energy=-9.245476416499812 pbc="F F F"
V        0.00000000       0.00000000       0.00000000       0.00000000       0.00000000       0.19645187
V        0.00000000       0.00000000       3.11939394       0.00000000       0.00000000      -0.19645187
2
Properties=species:S:1:pos:R:3:forces:R:3 energy=-9.232238901651764 pbc="F F F"
V        0.00000000       0.00000000       0.00000000       0.00000000       0.00000000       0.25093043
V        0.00000000       0.00000000       3.17818182       0.00000000       0.00000000      -0.25093043
2
Properties=species:S:1:pos:R:3:forces:R:3 energy=-9.216238657005134 pbc="F F F"
V        0.00000000       0.00000000       0.00000000       0.00000000       0.00000000       0.29162318
V        0.00000000       0.00000000       3.23696970       0.00000000       0.00000000      -0.29162318
2
Properties=species:S:1:pos:R:3:forces:R:3 energy=-9.198126223641388 pbc="F F F"
V        0.00000000       0.00000000       0.00000000       0.00000000       0.00000000       0.32319596
V        0.00000000       0.00000000       3.29575758       0.00000000       0.00000000      -0.32319596
2
Properties=species:S:1:pos:R:3:forces:R:3 energy=-9.17841446819069 pbc="F F F"
V        0.00000000       0.00000000       0.00000000       0.00000000       0.00000000       0.34583345
V        0.00000000       0.00000000       3.35454545       0.00000000       0.00000000      -0.34583345
2
Properties=species:S:1:pos:R:3:forces:R:3 energy=-9.157651926946617 pbc="F F F"
V        0.00000000       0.00000000       0.00000000       0.00000000       0.00000000       0.35899258
V        0.00000000       0.00000000       3.41333333       0.00000000       0.00000000      -0.35899258
2
Properties=species:S:1:pos:R:3:forces:R:3 energy=-9.136369336369947 pbc="F F F"
V        0.00000000       0.00000000       0.00000000       0.00000000       0.00000000       0.36388284
V        0.00000000       0.00000000       3.47212121       0.00000000       0.00000000      -0.36388284
2
Properties=species:S:1:pos:R:3:forces:R:3 energy=-9.11497876312077 pbc="F F F"
V        0.00000000       0.00000000       0.00000000       0.00000000       0.00000000       0.36313069
V        0.00000000       0.00000000       3.53090909       0.00000000       0.00000000      -0.36313069
2
Properties=species:S:1:pos:R:3:forces:R:3 energy=-9.0937405796141 pbc="F F F"
V        0.00000000       0.00000000       0.00000000       0.00000000       0.00000000       0.35897323
V        0.00000000       0.00000000       3.58969697       0.00000000       0.00000000      -0.35897323
2
Properties=species:S:1:pos:R:3:forces:R:3 energy=-9.072821444756165 pbc="F F F"
V        0.00000000       0.00000000       0.00000000       0.00000000       0.00000000       0.35222080
V        0.00000000       0.00000000       3.64848485       0.00000000       0.00000000      -0.35222080
2
Properties=species:S:1:pos:R:3:forces:R:3 energy=-9.052380308703267 pbc="F F F"
V        0.00000000       0.00000000       0.00000000       0.00000000       0.00000000       0.34271732
V        0.00000000       0.00000000       3.70727273       0.00000000       0.00000000      -0.34271732
2
Properties=species:S:1:pos:R:3:forces:R:3 energy=-9.032583532266651 pbc="F F F"
V        0.00000000       0.00000000       0.00000000       0.00000000       0.00000000       0.33031988
V        0.00000000       0.00000000       3.76606061       0.00000000       0.00000000      -0.33031988
2
Properties=species:S:1:pos:R:3:forces:R:3 energy=-9.013592615859295 pbc="F F F"
V        0.00000000       0.00000000       0.00000000       0.00000000       0.00000000       0.31540143
V        0.00000000       0.00000000       3.82484848       0.00000000       0.00000000      -0.31540143
2
Properties=species:S:1:pos:R:3:forces:R:3 energy=-8.9955360454328 pbc="F F F"
V        0.00000000       0.00000000       0.00000000       0.00000000       0.00000000       0.29873449
V        0.00000000       0.00000000       3.88363636       0.00000000       0.00000000      -0.29873449
2
Properties=species:S:1:pos:R:3:forces:R:3 energy=-8.978486825773986 pbc="F F F"
V        0.00000000       0.00000000       0.00000000       0.00000000       0.00000000       0.28112683
V        0.00000000       0.00000000       3.94242424       0.00000000       0.00000000      -0.28112683
2
Properties=species:S:1:pos:R:3:forces:R:3 energy=-8.962487884258985 pbc="F F F"
V        0.00000000       0.00000000       0.00000000       0.00000000       0.00000000       0.26319006
V        0.00000000       0.00000000       4.00121212       0.00000000       0.00000000      -0.26319006
2
Properties=species:S:1:pos:R:3:forces:R:3 energy=-8.947540354328723 pbc="F F F"
V        0.00000000       0.00000000       0.00000000       0.00000000       0.00000000       0.24538885
V        0.00000000       0.00000000       4.06000000       0.00000000       0.00000000      -0.24538885
2
Properties=species:S:1:pos:R:3:forces:R:3 energy=-8.933622978428764 pbc="F F F"
V        0.00000000       0.00000000       0.00000000       0.00000000       0.00000000       0.22819620
V        0.00000000       0.00000000       4.11878788       0.00000000       0.00000000      -0.22819620
2
Properties=species:S:1:pos:R:3:forces:R:3 energy=-8.92068764707632 pbc="F F F"
V        0.00000000       0.00000000       0.00000000       0.00000000       0.00000000       0.21210738
V        0.00000000       0.00000000       4.17757576       0.00000000       0.00000000      -0.21210738
2
Properties=species:S:1:pos:R:3:forces:R:3 energy=-8.908655131004572 pbc="F F F"
V        0.00000000       0.00000000       0.00000000       0.00000000       0.00000000       0.19750559
V        0.00000000       0.00000000       4.23636364       0.00000000       0.00000000      -0.19750559
2
Properties=species:S:1:pos:R:3:forces:R:3 energy=-8.897434810548031 pbc="F F F"
V        0.00000000       0.00000000       0.00000000       0.00000000       0.00000000       0.18451735
V        0.00000000       0.00000000       4.29515152       0.00000000       0.00000000      -0.18451735
2
Properties=species:S:1:pos:R:3:forces:R:3 energy=-8.886932127639025 pbc="F F F"
V        0.00000000       0.00000000       0.00000000       0.00000000       0.00000000       0.17299148
V        0.00000000       0.00000000       4.35393939       0.00000000       0.00000000      -0.17299148
2
Properties=species:S:1:pos:R:3:forces:R:3 energy=-8.87707116354473 pbc="F F F"
V        0.00000000       0.00000000       0.00000000       0.00000000       0.00000000       0.16259030
V        0.00000000       0.00000000       4.41272727       0.00000000       0.00000000      -0.16259030
2
Properties=species:S:1:pos:R:3:forces:R:3 energy=-8.867800512968527 pbc="F F F"
V        0.00000000       0.00000000       0.00000000       0.00000000       0.00000000       0.15293784
V        0.00000000       0.00000000       4.47151515       0.00000000       0.00000000      -0.15293784
2
Properties=species:S:1:pos:R:3:forces:R:3 energy=-8.859082274109687 pbc="F F F"
V        0.00000000       0.00000000       0.00000000       0.00000000       0.00000000       0.14373486
V        0.00000000       0.00000000       4.53030303       0.00000000       0.00000000      -0.14373486
2
Properties=species:S:1:pos:R:3:forces:R:3 energy=-8.850895850689351 pbc="F F F"
V        0.00000000       0.00000000       0.00000000       0.00000000       0.00000000       0.13482445
V        0.00000000       0.00000000       4.58909091       0.00000000       0.00000000      -0.13482445
2
Properties=species:S:1:pos:R:3:forces:R:3 energy=-8.843224290063537 pbc="F F F"
V        0.00000000       0.00000000       0.00000000       0.00000000       0.00000000       0.12618867
V        0.00000000       0.00000000       4.64787879       0.00000000       0.00000000      -0.12618867
2
Properties=species:S:1:pos:R:3:forces:R:3 energy=-8.836051187781333 pbc="F F F"
V        0.00000000       0.00000000       0.00000000       0.00000000       0.00000000       0.11790779
V        0.00000000       0.00000000       4.70666667       0.00000000       0.00000000      -0.11790779
2
Properties=species:S:1:pos:R:3:forces:R:3 energy=-8.829352956820077 pbc="F F F"
V        0.00000000       0.00000000       0.00000000       0.00000000       0.00000000       0.11010696
V        0.00000000       0.00000000       4.76545455       0.00000000       0.00000000      -0.11010696
2
Properties=species:S:1:pos:R:3:forces:R:3 energy=-8.823092953483984 pbc="F F F"
V        0.00000000       0.00000000       0.00000000       0.00000000       0.00000000       0.10291247
V        0.00000000       0.00000000       4.82424242       0.00000000       0.00000000      -0.10291247
2
Properties=species:S:1:pos:R:3:forces:R:3 energy=-8.817238453472514 pbc="F F F"
V        0.00000000       0.00000000       0.00000000       0.00000000       0.00000000       0.09642752
V        0.00000000       0.00000000       4.88303030       0.00000000       0.00000000      -0.09642752
2
Properties=species:S:1:pos:R:3:forces:R:3 energy=-8.811740517013781 pbc="F F F"
V        0.00000000       0.00000000       0.00000000       0.00000000       0.00000000       0.09071663
V        0.00000000       0.00000000       4.94181818       0.00000000       0.00000000      -0.09071663
2
Properties=species:S:1:pos:R:3:forces:R:3 energy=-8.806556823195157 pbc="F F F"
V        0.00000000       0.00000000       0.00000000       0.00000000       0.00000000       0.08580106
V        0.00000000       0.00000000       5.00060606       0.00000000       0.00000000      -0.08580106
2
Properties=species:S:1:pos:R:3:forces:R:3 energy=-8.801637434540629 pbc="F F F"
V        0.00000000       0.00000000       0.00000000       0.00000000       0.00000000       0.08163594
V        0.00000000       0.00000000       5.05939394       0.00000000       0.00000000      -0.08163594
2
Properties=species:S:1:pos:R:3:forces:R:3 energy=-8.796945575105129 pbc="F F F"
V        0.00000000       0.00000000       0.00000000       0.00000000       0.00000000       0.07809672
V        0.00000000       0.00000000       5.11818182       0.00000000       0.00000000      -0.07809672
2
Properties=species:S:1:pos:R:3:forces:R:3 energy=-8.792448226779909 pbc="F F F"
V        0.00000000       0.00000000       0.00000000       0.00000000       0.00000000       0.07496913
V        0.00000000       0.00000000       5.17696970       0.00000000       0.00000000      -0.07496913
2
Properties=species:S:1:pos:R:3:forces:R:3 energy=-8.7881295567607 pbc="F F F"
V        0.00000000       0.00000000       0.00000000       0.00000000       0.00000000       0.07196760
V        0.00000000       0.00000000       5.23575758       0.00000000       0.00000000      -0.07196760
2
Properties=species:S:1:pos:R:3:forces:R:3 energy=-8.783990841519975 pbc="F F F"
V        0.00000000       0.00000000       0.00000000       0.00000000       0.00000000       0.06877282
V        0.00000000       0.00000000       5.29454545       0.00000000       0.00000000      -0.06877282
2
Properties=species:S:1:pos:R:3:forces:R:3 energy=-8.780052580064028 pbc="F F F"
V        0.00000000       0.00000000       0.00000000       0.00000000       0.00000000       0.06509933
V        0.00000000       0.00000000       5.35333333       0.00000000       0.00000000      -0.06509933
2
Properties=species:S:1:pos:R:3:forces:R:3 energy=-8.776349741400505 pbc="F F F"
V        0.00000000       0.00000000       0.00000000       0.00000000       0.00000000       0.06075610
V        0.00000000       0.00000000       5.41212121       0.00000000       0.00000000      -0.06075610
2
Properties=species:S:1:pos:R:3:forces:R:3 energy=-8.772922268976918 pbc="F F F"
V        0.00000000       0.00000000       0.00000000       0.00000000       0.00000000       0.05570159
V        0.00000000       0.00000000       5.47090909       0.00000000       0.00000000      -0.05570159
2
Properties=species:S:1:pos:R:3:forces:R:3 energy=-8.769811440213605 pbc="F F F"
V        0.00000000       0.00000000       0.00000000       0.00000000       0.00000000       0.05006106
V        0.00000000       0.00000000       5.52969697       0.00000000       0.00000000      -0.05006106
2
Properties=species:S:1:pos:R:3:forces:R:3 energy=-8.767042744715544 pbc="F F F"
V        0.00000000       0.00000000       0.00000000       0.00000000       0.00000000       0.04410863
V        0.00000000       0.00000000       5.58848485       0.00000000       0.00000000      -0.04410863
2
Properties=species:S:1:pos:R:3:forces:R:3 energy=-8.764624993954474 pbc="F F F"
V        0.00000000       0.00000000       0.00000000       0.00000000       0.00000000       0.03821649
V        0.00000000       0.00000000       5.64727273       0.00000000       0.00000000      -0.03821649
2
Properties=species:S:1:pos:R:3:forces:R:3 energy=-8.762541833234721 pbc="F F F"
V        0.00000000       0.00000000       0.00000000       0.00000000       0.00000000       0.03277990
V        0.00000000       0.00000000       5.70606061       0.00000000       0.00000000      -0.03277990
2
Properties=species:S:1:pos:R:3:forces:R:3 energy=-8.760754696166895 pbc="F F F"
V        0.00000000       0.00000000       0.00000000       0.00000000       0.00000000       0.02813835
V        0.00000000       0.00000000       5.76484848       0.00000000       0.00000000      -0.02813835
2
Properties=species:S:1:pos:R:3:forces:R:3 energy=-8.75921334418661 pbc="F F F"
V        0.00000000       0.00000000       0.00000000       0.00000000       0.00000000       0.02450781
V        0.00000000       0.00000000       5.82363636       0.00000000       0.00000000      -0.02450781
2
Properties=species:S:1:pos:R:3:forces:R:3 energy=-8.75785398296453 pbc="F F F"
V        0.00000000       0.00000000       0.00000000       0.00000000       0.00000000       0.02191925
V        0.00000000       0.00000000       5.88242424       0.00000000       0.00000000      -0.02191925
2
Properties=species:S:1:pos:R:3:forces:R:3 energy=-8.756617505763428 pbc="F F F"
V        0.00000000       0.00000000       0.00000000       0.00000000       0.00000000       0.02020224
V        0.00000000       0.00000000       5.94121212       0.00000000       0.00000000      -0.02020224
2
Properties=species:S:1:pos:R:3:forces:R:3 energy=-8.755467594243276 pbc="F F F"
V        0.00000000       0.00000000       0.00000000       0.00000000       0.00000000       0.01901128
V        0.00000000       0.00000000       6.00000000       0.00000000       0.00000000      -0.01901128
