2
Properties=species:S:1:pos:R:3:forces:R:3 energy=35292712959.95745 pbc="F F F"
W        0.00000000       0.00000000       0.00000000       0.00000000       0.00000000 -403741310976.00000000
W        0.00000000       0.00000000       0.18000000       0.00000000       0.00000000 403741310976.00000000
2
Properties=species:S:1:pos:R:3:forces:R:3 energy=15615011839.957453 pbc="F F F"
W        0.00000000       0.00000000       0.00000000       0.00000000       0.00000000 -257789165568.00000000
W        0.00000000       0.00000000       0.23878788       0.00000000       0.00000000 257789165568.00000000
2
Properties=species:S:1:pos:R:3:forces:R:3 energy=4908385279.957454 pbc="F F F"
W        0.00000000       0.00000000       0.00000000       0.00000000       0.00000000 -113905762304.00000000
W        0.00000000       0.00000000       0.29757576       0.00000000       0.00000000 113905762304.00000000
2
Properties=species:S:1:pos:R:3:forces:R:3 energy=980718335.9574534 pbc="F F F"
W        0.00000000       0.00000000       0.00000000       0.00000000       0.00000000 -30733481984.00000000
W        0.00000000       0.00000000       0.35636364       0.00000000       0.00000000 30733481984.00000000
2
Properties=species:S:1:pos:R:3:forces:R:3 energy=120838007.95745337 pbc="F F F"
W        0.00000000       0.00000000       0.00000000       0.00000000       0.00000000 -5000238592.00000000
W        0.00000000       0.00000000       0.41515152       0.00000000       0.00000000 5000238592.00000000
2
Properties=species:S:1:pos:R:3:forces:R:3 energy=8187582.457453367 pbc="F F F"
W        0.00000000       0.00000000       0.00000000       0.00000000       0.00000000 -379941856.00000000
W        0.00000000       0.00000000       0.47393939       0.00000000       0.00000000 379941856.00000000
2
Properties=species:S:1:pos:R:3:forces:R:3 energy=454901.8324533799 pbc="F F F"
W        0.00000000       0.00000000       0.00000000       0.00000000       0.00000000 -22865838.00000000
W        0.00000000       0.00000000       0.53272727       0.00000000       0.00000000 22865838.00000000
2
Properties=species:S:1:pos:R:3:forces:R:3 energy=44061.488703398885 pbc="F F F"
W        0.00000000       0.00000000       0.00000000       0.00000000       0.00000000 -1232359.62500000
W        0.00000000       0.00000000       0.59151515       0.00000000       0.00000000 1232359.62500000
2
Properties=species:S:1:pos:R:3:forces:R:3 energy=12763.983820618061 pbc="F F F"
W        0.00000000       0.00000000       0.00000000       0.00000000       0.00000000 -204613.93750000
W        0.00000000       0.00000000       0.65030303       0.00000000       0.00000000  204613.93750000
2
Properties=species:S:1:pos:R:3:forces:R:3 energy=6225.105402693661 pbc="F F F"
W        0.00000000       0.00000000       0.00000000       0.00000000       0.00000000  -67257.00000000
W        0.00000000       0.00000000       0.70909091       0.00000000       0.00000000   67257.00000000
2
Properties=species:S:1:pos:R:3:forces:R:3 energy=3265.204279719646 pbc="F F F"
W        0.00000000       0.00000000       0.00000000       0.00000000       0.00000000  -36429.13281250
W        0.00000000       0.00000000       0.76787879       0.00000000       0.00000000   36429.13281250
2
Properties=species:S:1:pos:R:3:forces:R:3 energy=1569.764338421102 pbc="F F F"
W        0.00000000       0.00000000       0.00000000       0.00000000       0.00000000  -20239.22656250
W        0.00000000       0.00000000       0.82666667       0.00000000       0.00000000   20239.22656250
2
Properties=species:S:1:pos:R:3:forces:R:3 energy=663.6677199239815 pbc="F F F"
W        0.00000000       0.00000000       0.00000000       0.00000000       0.00000000  -10809.34863281
W        0.00000000       0.00000000       0.88545455       0.00000000       0.00000000   10809.34863281
2
Properties=species:S:1:pos:R:3:forces:R:3 energy=212.38604289329967 pbc="F F F"
W        0.00000000       0.00000000       0.00000000       0.00000000       0.00000000   -4898.56933594
W        0.00000000       0.00000000       0.94424242       0.00000000       0.00000000    4898.56933594
2
Properties=species:S:1:pos:R:3:forces:R:3 energy=34.743320107578846 pbc="F F F"
W        0.00000000       0.00000000       0.00000000       0.00000000       0.00000000   -1862.58508301
W        0.00000000       0.00000000       1.00303030       0.00000000       0.00000000    1862.58508301
2
Properties=species:S:1:pos:R:3:forces:R:3 energy=-4.208713489857592 pbc="F F F"
W        0.00000000       0.00000000       0.00000000       0.00000000       0.00000000     161.60337830
W        0.00000000       0.00000000       1.06181818       0.00000000       0.00000000    -161.60337830
2
Properties=species:S:1:pos:R:3:forces:R:3 energy=3.1437173859644583 pbc="F F F"
W        0.00000000       0.00000000       0.00000000       0.00000000       0.00000000      84.68745422
W        0.00000000       0.00000000       1.12060606       0.00000000       0.00000000     -84.68745422
2
Properties=species:S:1:pos:R:3:forces:R:3 energy=6.139796574096269 pbc="F F F"
W        0.00000000       0.00000000       0.00000000       0.00000000       0.00000000      24.84808159
W        0.00000000       0.00000000       1.17939394       0.00000000       0.00000000     -24.84808159
2
Properties=species:S:1:pos:R:3:forces:R:3 energy=7.4104941137724065 pbc="F F F"
W        0.00000000       0.00000000       0.00000000       0.00000000       0.00000000      12.99332714
W        0.00000000       0.00000000       1.23818182       0.00000000       0.00000000     -12.99332714
2
Properties=species:S:1:pos:R:3:forces:R:3 energy=7.185319409315723 pbc="F F F"
W        0.00000000       0.00000000       0.00000000       0.00000000       0.00000000     -15.79163647
W        0.00000000       0.00000000       1.29696970       0.00000000       0.00000000      15.79163647
2
Properties=species:S:1:pos:R:3:forces:R:3 energy=6.2270460252053175 pbc="F F F"
W        0.00000000       0.00000000       0.00000000       0.00000000       0.00000000     -15.45128155
W        0.00000000       0.00000000       1.35575758       0.00000000       0.00000000      15.45128155
2
Properties=species:S:1:pos:R:3:forces:R:3 energy=5.2153119337331795 pbc="F F F"
W        0.00000000       0.00000000       0.00000000       0.00000000       0.00000000     -20.95779610
W        0.00000000       0.00000000       1.41454545       0.00000000       0.00000000      20.95779610
2
Properties=species:S:1:pos:R:3:forces:R:3 energy=3.6759751363420796 pbc="F F F"
W        0.00000000       0.00000000       0.00000000       0.00000000       0.00000000     -31.99304390
W        0.00000000       0.00000000       1.47333333       0.00000000       0.00000000      31.99304390
2
Properties=species:S:1:pos:R:3:forces:R:3 energy=1.4577715215537437 pbc="F F F"
W        0.00000000       0.00000000       0.00000000       0.00000000       0.00000000     -42.00561523
W        0.00000000       0.00000000       1.53212121       0.00000000       0.00000000      42.00561523
2
Properties=species:S:1:pos:R:3:forces:R:3 energy=-1.0800248955712368 pbc="F F F"
W        0.00000000       0.00000000       0.00000000       0.00000000       0.00000000     -43.61384964
W        0.00000000       0.00000000       1.59090909       0.00000000       0.00000000      43.61384964
2
Properties=species:S:1:pos:R:3:forces:R:3 energy=-3.6209934585478067 pbc="F F F"
W        0.00000000       0.00000000       0.00000000       0.00000000       0.00000000     -41.85663986
W        0.00000000       0.00000000       1.64969697       0.00000000       0.00000000      41.85663986
2
Properties=species:S:1:pos:R:3:forces:R:3 energy=-5.9587188642714795 pbc="F F F"
W        0.00000000       0.00000000       0.00000000       0.00000000       0.00000000     -37.40655136
W        0.00000000       0.00000000       1.70848485       0.00000000       0.00000000      37.40655136
2
Properties=species:S:1:pos:R:3:forces:R:3 energy=-7.9589455989634 pbc="F F F"
W        0.00000000       0.00000000       0.00000000       0.00000000       0.00000000     -30.58302879
W        0.00000000       0.00000000       1.76727273       0.00000000       0.00000000      30.58302879
2
Properties=species:S:1:pos:R:3:forces:R:3 energy=-9.613511981607411 pbc="F F F"
W        0.00000000       0.00000000       0.00000000       0.00000000       0.00000000     -25.90002060
W        0.00000000       0.00000000       1.82606061       0.00000000       0.00000000      25.90002060
2
Properties=species:S:1:pos:R:3:forces:R:3 energy=-10.955766944835794 pbc="F F F"
W        0.00000000       0.00000000       0.00000000       0.00000000       0.00000000     -20.06168175
W        0.00000000       0.00000000       1.88484848       0.00000000       0.00000000      20.06168175
2
Properties=species:S:1:pos:R:3:forces:R:3 energy=-11.99075065107511 pbc="F F F"
W        0.00000000       0.00000000       0.00000000       0.00000000       0.00000000     -14.94985294
W        0.00000000       0.00000000       1.94363636       0.00000000       0.00000000      14.94985294
2
Properties=species:S:1:pos:R:3:forces:R:3 energy=-12.712255726066715 pbc="F F F"
W        0.00000000       0.00000000       0.00000000       0.00000000       0.00000000      -9.79442310
W        0.00000000       0.00000000       2.00242424       0.00000000       0.00000000       9.79442310
2
Properties=species:S:1:pos:R:3:forces:R:3 energy=-13.168008255949898 pbc="F F F"
W        0.00000000       0.00000000       0.00000000       0.00000000       0.00000000      -5.83261251
W        0.00000000       0.00000000       2.06121212       0.00000000       0.00000000       5.83261251
2
Properties=species:S:1:pos:R:3:forces:R:3 energy=-13.40364430041838 pbc="F F F"
W        0.00000000       0.00000000       0.00000000       0.00000000       0.00000000      -2.25322819
W        0.00000000       0.00000000       2.12000000       0.00000000       0.00000000       2.25322819
2
Properties=species:S:1:pos:R:3:forces:R:3 energy=-13.44955814402576 pbc="F F F"
W        0.00000000       0.00000000       0.00000000       0.00000000       0.00000000       0.52601236
W        0.00000000       0.00000000       2.17878788       0.00000000       0.00000000      -0.52601236
2
Properties=species:S:1:pos:R:3:forces:R:3 energy=-13.354713383730573 pbc="F F F"
W        0.00000000       0.00000000       0.00000000       0.00000000       0.00000000       2.62682939
W        0.00000000       0.00000000       2.23757576       0.00000000       0.00000000      -2.62682939
2
Properties=species:S:1:pos:R:3:forces:R:3 energy=-13.153518676768527 pbc="F F F"
W        0.00000000       0.00000000       0.00000000       0.00000000       0.00000000       4.08676720
W        0.00000000       0.00000000       2.29636364       0.00000000       0.00000000      -4.08676720
2
Properties=species:S:1:pos:R:3:forces:R:3 energy=-12.885379068338457 pbc="F F F"
W        0.00000000       0.00000000       0.00000000       0.00000000       0.00000000       4.97495651
W        0.00000000       0.00000000       2.35515152       0.00000000       0.00000000      -4.97495651
2
Properties=species:S:1:pos:R:3:forces:R:3 energy=-12.5778392782173 pbc="F F F"
W        0.00000000       0.00000000       0.00000000       0.00000000       0.00000000       5.38570929
W        0.00000000       0.00000000       2.41393939       0.00000000       0.00000000      -5.38570929
2
Properties=species:S:1:pos:R:3:forces:R:3 energy=-12.26371939658533 pbc="F F F"
W        0.00000000       0.00000000       0.00000000       0.00000000       0.00000000       5.21532202
W        0.00000000       0.00000000       2.47272727       0.00000000       0.00000000      -5.21532202
2
Properties=species:S:1:pos:R:3:forces:R:3 energy=-11.97145392830256 pbc="F F F"
W        0.00000000       0.00000000       0.00000000       0.00000000       0.00000000       4.70375538
W        0.00000000       0.00000000       2.53151515       0.00000000       0.00000000      -4.70375538
2
Properties=species:S:1:pos:R:3:forces:R:3 energy=-11.711509217362487 pbc="F F F"
W        0.00000000       0.00000000       0.00000000       0.00000000       0.00000000       4.13394117
W        0.00000000       0.00000000       2.59030303       0.00000000       0.00000000      -4.13394117
2
Properties=species:S:1:pos:R:3:forces:R:3 energy=-11.486168065543449 pbc="F F F"
W        0.00000000       0.00000000       0.00000000       0.00000000       0.00000000       3.53154874
W        0.00000000       0.00000000       2.64909091       0.00000000       0.00000000      -3.53154874
2
Properties=species:S:1:pos:R:3:forces:R:3 energy=-11.295372542997297 pbc="F F F"
W        0.00000000       0.00000000       0.00000000       0.00000000       0.00000000       2.97211647
W        0.00000000       0.00000000       2.70787879       0.00000000       0.00000000      -2.97211647
2
Properties=species:S:1:pos:R:3:forces:R:3 energy=-11.135308331521268 pbc="F F F"
W        0.00000000       0.00000000       0.00000000       0.00000000       0.00000000       2.48359036
W        0.00000000       0.00000000       2.76666667       0.00000000       0.00000000      -2.48359036
2
Properties=species:S:1:pos:R:3:forces:R:3 energy=-11.00225561715646 pbc="F F F"
W        0.00000000       0.00000000       0.00000000       0.00000000       0.00000000       2.05270076
W        0.00000000       0.00000000       2.82545455       0.00000000       0.00000000      -2.05270076
2
Properties=species:S:1:pos:R:3:forces:R:3 energy=-10.892615864635836 pbc="F F F"
W        0.00000000       0.00000000       0.00000000       0.00000000       0.00000000       1.69049275
W        0.00000000       0.00000000       2.88424242       0.00000000       0.00000000      -1.69049275
2
Properties=species:S:1:pos:R:3:forces:R:3 energy=-10.801775350400241 pbc="F F F"
W        0.00000000       0.00000000       0.00000000       0.00000000       0.00000000       1.41554213
W        0.00000000       0.00000000       2.94303030       0.00000000       0.00000000      -1.41554213
2
Properties=species:S:1:pos:R:3:forces:R:3 energy=-10.724418971857101 pbc="F F F"
W        0.00000000       0.00000000       0.00000000       0.00000000       0.00000000       1.22952640
W        0.00000000       0.00000000       3.00181818       0.00000000       0.00000000      -1.22952640
2
Properties=species:S:1:pos:R:3:forces:R:3 energy=-10.656016949014484 pbc="F F F"
W        0.00000000       0.00000000       0.00000000       0.00000000       0.00000000       1.10376978
W        0.00000000       0.00000000       3.06060606       0.00000000       0.00000000      -1.10376978
2
Properties=species:S:1:pos:R:3:forces:R:3 energy=-10.594334219216964 pbc="F F F"
W        0.00000000       0.00000000       0.00000000       0.00000000       0.00000000       0.99464220
W        0.00000000       0.00000000       3.11939394       0.00000000       0.00000000      -0.99464220
2
Properties=species:S:1:pos:R:3:forces:R:3 energy=-10.539159035246701 pbc="F F F"
W        0.00000000       0.00000000       0.00000000       0.00000000       0.00000000       0.88220358
W        0.00000000       0.00000000       3.17818182       0.00000000       0.00000000      -0.88220358
2
Properties=species:S:1:pos:R:3:forces:R:3 energy=-10.490506314944037 pbc="F F F"
W        0.00000000       0.00000000       0.00000000       0.00000000       0.00000000       0.77493024
W        0.00000000       0.00000000       3.23696970       0.00000000       0.00000000      -0.77493024
2
Properties=species:S:1:pos:R:3:forces:R:3 energy=-10.447772296019536 pbc="F F F"
W        0.00000000       0.00000000       0.00000000       0.00000000       0.00000000       0.68119138
W        0.00000000       0.00000000       3.29575758       0.00000000       0.00000000      -0.68119138
2
Properties=species:S:1:pos:R:3:forces:R:3 energy=-10.410200725464206 pbc="F F F"
W        0.00000000       0.00000000       0.00000000       0.00000000       0.00000000       0.59838408
W        0.00000000       0.00000000       3.35454545       0.00000000       0.00000000      -0.59838408
2
Properties=species:S:1:pos:R:3:forces:R:3 energy=-10.377316342416472 pbc="F F F"
W        0.00000000       0.00000000       0.00000000       0.00000000       0.00000000       0.52079195
W        0.00000000       0.00000000       3.41333333       0.00000000       0.00000000      -0.52079195
2
Properties=species:S:1:pos:R:3:forces:R:3 energy=-10.3489082831624 pbc="F F F"
W        0.00000000       0.00000000       0.00000000       0.00000000       0.00000000       0.44630221
W        0.00000000       0.00000000       3.47212121       0.00000000       0.00000000      -0.44630221
2
Properties=species:S:1:pos:R:3:forces:R:3 energy=-10.324747063979846 pbc="F F F"
W        0.00000000       0.00000000       0.00000000       0.00000000       0.00000000       0.37670940
W        0.00000000       0.00000000       3.53090909       0.00000000       0.00000000      -0.37670940
2
Properties=species:S:1:pos:R:3:forces:R:3 energy=-10.304465213138094 pbc="F F F"
W        0.00000000       0.00000000       0.00000000       0.00000000       0.00000000       0.31477737
W        0.00000000       0.00000000       3.58969697       0.00000000       0.00000000      -0.31477737
2
Properties=species:S:1:pos:R:3:forces:R:3 energy=-10.287557717560784 pbc="F F F"
W        0.00000000       0.00000000       0.00000000       0.00000000       0.00000000       0.26203054
W        0.00000000       0.00000000       3.64848485       0.00000000       0.00000000      -0.26203054
2
Properties=species:S:1:pos:R:3:forces:R:3 energy=-10.27347469712917 pbc="F F F"
W        0.00000000       0.00000000       0.00000000       0.00000000       0.00000000       0.21857734
W        0.00000000       0.00000000       3.70727273       0.00000000       0.00000000      -0.21857734
2
Properties=species:S:1:pos:R:3:forces:R:3 energy=-10.261686352738133 pbc="F F F"
W        0.00000000       0.00000000       0.00000000       0.00000000       0.00000000       0.18382983
W        0.00000000       0.00000000       3.76606061       0.00000000       0.00000000      -0.18382983
2
Properties=species:S:1:pos:R:3:forces:R:3 energy=-10.251706877846171 pbc="F F F"
W        0.00000000       0.00000000       0.00000000       0.00000000       0.00000000       0.15695791
W        0.00000000       0.00000000       3.82484848       0.00000000       0.00000000      -0.15695791
2
Properties=species:S:1:pos:R:3:forces:R:3 energy=-10.243097265645371 pbc="F F F"
W        0.00000000       0.00000000       0.00000000       0.00000000       0.00000000       0.13690518
W        0.00000000       0.00000000       3.88363636       0.00000000       0.00000000      -0.13690518
2
Properties=species:S:1:pos:R:3:forces:R:3 energy=-10.235503595418244 pbc="F F F"
W        0.00000000       0.00000000       0.00000000       0.00000000       0.00000000       0.12231064
W        0.00000000       0.00000000       3.94242424       0.00000000       0.00000000      -0.12231064
2
Properties=species:S:1:pos:R:3:forces:R:3 energy=-10.228641713560037 pbc="F F F"
W        0.00000000       0.00000000       0.00000000       0.00000000       0.00000000       0.11160196
W        0.00000000       0.00000000       4.00121212       0.00000000       0.00000000      -0.11160196
2
Properties=species:S:1:pos:R:3:forces:R:3 energy=-10.22233263040222 pbc="F F F"
W        0.00000000       0.00000000       0.00000000       0.00000000       0.00000000       0.10329963
W        0.00000000       0.00000000       4.06000000       0.00000000       0.00000000      -0.10329963
2
Properties=species:S:1:pos:R:3:forces:R:3 energy=-10.21646910993319 pbc="F F F"
W        0.00000000       0.00000000       0.00000000       0.00000000       0.00000000       0.09633716
W        0.00000000       0.00000000       4.11878788       0.00000000       0.00000000      -0.09633716
2
Properties=species:S:1:pos:R:3:forces:R:3 energy=-10.210991881793332 pbc="F F F"
W        0.00000000       0.00000000       0.00000000       0.00000000       0.00000000       0.09016626
W        0.00000000       0.00000000       4.17757576       0.00000000       0.00000000      -0.09016626
2
Properties=species:S:1:pos:R:3:forces:R:3 energy=-10.205856316526923 pbc="F F F"
W        0.00000000       0.00000000       0.00000000       0.00000000       0.00000000       0.08460860
W        0.00000000       0.00000000       4.23636364       0.00000000       0.00000000      -0.08460860
2
Properties=species:S:1:pos:R:3:forces:R:3 energy=-10.201031449733069 pbc="F F F"
W        0.00000000       0.00000000       0.00000000       0.00000000       0.00000000       0.07960635
W        0.00000000       0.00000000       4.29515152       0.00000000       0.00000000      -0.07960635
2
Properties=species:S:1:pos:R:3:forces:R:3 energy=-10.196488626672915 pbc="F F F"
W        0.00000000       0.00000000       0.00000000       0.00000000       0.00000000       0.07504985
W        0.00000000       0.00000000       4.35393939       0.00000000       0.00000000      -0.07504985
2
Properties=species:S:1:pos:R:3:forces:R:3 energy=-10.192204287264875 pbc="F F F"
W        0.00000000       0.00000000       0.00000000       0.00000000       0.00000000       0.07072987
W        0.00000000       0.00000000       4.41272727       0.00000000       0.00000000      -0.07072987
2
Properties=species:S:1:pos:R:3:forces:R:3 energy=-10.188173403056249 pbc="F F F"
W        0.00000000       0.00000000       0.00000000       0.00000000       0.00000000       0.06639253
W        0.00000000       0.00000000       4.47151515       0.00000000       0.00000000      -0.06639253
2
Properties=species:S:1:pos:R:3:forces:R:3 energy=-10.184401793975724 pbc="F F F"
W        0.00000000       0.00000000       0.00000000       0.00000000       0.00000000       0.06181441
W        0.00000000       0.00000000       4.53030303       0.00000000       0.00000000      -0.06181441
2
Properties=species:S:1:pos:R:3:forces:R:3 energy=-10.180910928383168 pbc="F F F"
W        0.00000000       0.00000000       0.00000000       0.00000000       0.00000000       0.05685329
W        0.00000000       0.00000000       4.58909091       0.00000000       0.00000000      -0.05685329
2
Properties=species:S:1:pos:R:3:forces:R:3 energy=-10.17772645046745 pbc="F F F"
W        0.00000000       0.00000000       0.00000000       0.00000000       0.00000000       0.05145961
W        0.00000000       0.00000000       4.64787879       0.00000000       0.00000000      -0.05145961
2
Properties=species:S:1:pos:R:3:forces:R:3 energy=-10.174870493831088 pbc="F F F"
W        0.00000000       0.00000000       0.00000000       0.00000000       0.00000000       0.04565347
W        0.00000000       0.00000000       4.70666667       0.00000000       0.00000000      -0.04565347
2
Properties=species:S:1:pos:R:3:forces:R:3 energy=-10.172364529841927 pbc="F F F"
W        0.00000000       0.00000000       0.00000000       0.00000000       0.00000000       0.03950389
W        0.00000000       0.00000000       4.76545455       0.00000000       0.00000000      -0.03950389
2
Properties=species:S:1:pos:R:3:forces:R:3 energy=-10.170230283293584 pbc="F F F"
W        0.00000000       0.00000000       0.00000000       0.00000000       0.00000000       0.03311404
W        0.00000000       0.00000000       4.82424242       0.00000000       0.00000000      -0.03311404
2
Properties=species:S:1:pos:R:3:forces:R:3 energy=-10.168474435602521 pbc="F F F"
W        0.00000000       0.00000000       0.00000000       0.00000000       0.00000000       0.02663252
W        0.00000000       0.00000000       4.88303030       0.00000000       0.00000000      -0.02663252
2
Properties=species:S:1:pos:R:3:forces:R:3 energy=-10.16709614016097 pbc="F F F"
W        0.00000000       0.00000000       0.00000000       0.00000000       0.00000000       0.02026009
W        0.00000000       0.00000000       4.94181818       0.00000000       0.00000000      -0.02026009
2
Properties=species:S:1:pos:R:3:forces:R:3 energy=-10.16608603698441 pbc="F F F"
W        0.00000000       0.00000000       0.00000000       0.00000000       0.00000000       0.01426235
W        0.00000000       0.00000000       5.00060606       0.00000000       0.00000000      -0.01426235
2
Properties=species:S:1:pos:R:3:forces:R:3 energy=-10.165407185560875 pbc="F F F"
W        0.00000000       0.00000000       0.00000000       0.00000000       0.00000000       0.00894434
W        0.00000000       0.00000000       5.05939394       0.00000000       0.00000000      -0.00894434
2
Properties=species:S:1:pos:R:3:forces:R:3 energy=-10.165015880959162 pbc="F F F"
W        0.00000000       0.00000000       0.00000000       0.00000000       0.00000000       0.00461377
W        0.00000000       0.00000000       5.11818182       0.00000000       0.00000000      -0.00461377
2
Properties=species:S:1:pos:R:3:forces:R:3 energy=-10.164838743470483 pbc="F F F"
W        0.00000000       0.00000000       0.00000000       0.00000000       0.00000000       0.00152057
W        0.00000000       0.00000000       5.17696970       0.00000000       0.00000000      -0.00152057
2
Properties=species:S:1:pos:R:3:forces:R:3 energy=-10.164806097209544 pbc="F F F"
W        0.00000000       0.00000000       0.00000000       0.00000000       0.00000000      -0.00019396
W        0.00000000       0.00000000       5.23575758       0.00000000       0.00000000       0.00019396
2
Properties=species:S:1:pos:R:3:forces:R:3 energy=-10.164835615099163 pbc="F F F"
W        0.00000000       0.00000000       0.00000000       0.00000000       0.00000000      -0.00053489
W        0.00000000       0.00000000       5.29454545       0.00000000       0.00000000       0.00053489
2
Properties=species:S:1:pos:R:3:forces:R:3 energy=-10.164845720995856 pbc="F F F"
W        0.00000000       0.00000000       0.00000000       0.00000000       0.00000000       0.00033846
W        0.00000000       0.00000000       5.35333333       0.00000000       0.00000000      -0.00033846
2
Properties=species:S:1:pos:R:3:forces:R:3 energy=-10.164776489745341 pbc="F F F"
W        0.00000000       0.00000000       0.00000000       0.00000000       0.00000000       0.00213650
W        0.00000000       0.00000000       5.41212121       0.00000000       0.00000000      -0.00213650
2
Properties=species:S:1:pos:R:3:forces:R:3 energy=-10.164583888706671 pbc="F F F"
W        0.00000000       0.00000000       0.00000000       0.00000000       0.00000000       0.00449066
W        0.00000000       0.00000000       5.47090909       0.00000000       0.00000000      -0.00449066
2
Properties=species:S:1:pos:R:3:forces:R:3 energy=-10.164245509301606 pbc="F F F"
W        0.00000000       0.00000000       0.00000000       0.00000000       0.00000000       0.00701566
W        0.00000000       0.00000000       5.52969697       0.00000000       0.00000000      -0.00701566
2
Properties=species:S:1:pos:R:3:forces:R:3 energy=-10.163762479114984 pbc="F F F"
W        0.00000000       0.00000000       0.00000000       0.00000000       0.00000000       0.00937227
W        0.00000000       0.00000000       5.58848485       0.00000000       0.00000000      -0.00937227
2
Properties=species:S:1:pos:R:3:forces:R:3 energy=-10.163150842395908 pbc="F F F"
W        0.00000000       0.00000000       0.00000000       0.00000000       0.00000000       0.01130995
W        0.00000000       0.00000000       5.64727273       0.00000000       0.00000000      -0.01130995
2
Properties=species:S:1:pos:R:3:forces:R:3 energy=-10.162441566393397 pbc="F F F"
W        0.00000000       0.00000000       0.00000000       0.00000000       0.00000000       0.01269444
W        0.00000000       0.00000000       5.70606061       0.00000000       0.00000000      -0.01269444
2
Properties=species:S:1:pos:R:3:forces:R:3 energy=-10.161670107959708 pbc="F F F"
W        0.00000000       0.00000000       0.00000000       0.00000000       0.00000000       0.01349969
W        0.00000000       0.00000000       5.76484848       0.00000000       0.00000000      -0.01349969
2
Properties=species:S:1:pos:R:3:forces:R:3 energy=-10.1608678051389 pbc="F F F"
W        0.00000000       0.00000000       0.00000000       0.00000000       0.00000000       0.01378474
W        0.00000000       0.00000000       5.82363636       0.00000000       0.00000000      -0.01378474
2
Properties=species:S:1:pos:R:3:forces:R:3 energy=-10.160058078308685 pbc="F F F"
W        0.00000000       0.00000000       0.00000000       0.00000000       0.00000000       0.01366461
W        0.00000000       0.00000000       5.88242424       0.00000000       0.00000000      -0.01366461
2
Properties=species:S:1:pos:R:3:forces:R:3 energy=-10.159266974450894 pbc="F F F"
W        0.00000000       0.00000000       0.00000000       0.00000000       0.00000000       0.01327557
W        0.00000000       0.00000000       5.94121212       0.00000000       0.00000000      -0.01327557
2
Properties=species:S:1:pos:R:3:forces:R:3 energy=-10.158500278967864 pbc="F F F"
W        0.00000000       0.00000000       0.00000000       0.00000000       0.00000000       0.01275367
W        0.00000000       0.00000000       6.00000000       0.00000000       0.00000000      -0.01275367
