2
Properties=species:S:1:pos:R:3:forces:R:3 energy=22079407.920996074 pbc="F F F"
Y        0.00000000       0.00000000       0.00000000       0.00000000       0.00000000 -240683440.00000000
Y        0.00000000       0.00000000       0.18000000       0.00000000       0.00000000 240683440.00000000
2
Properties=species:S:1:pos:R:3:forces:R:3 energy=10101932.920996074 pbc="F F F"
Y        0.00000000       0.00000000       0.00000000       0.00000000       0.00000000 -161280736.00000000
Y        0.00000000       0.00000000       0.23878788       0.00000000       0.00000000 161280736.00000000
2
Properties=species:S:1:pos:R:3:forces:R:3 energy=3211035.920996074 pbc="F F F"
Y        0.00000000       0.00000000       0.00000000       0.00000000       0.00000000 -76329584.00000000
Y        0.00000000       0.00000000       0.29757576       0.00000000       0.00000000 76329584.00000000
2
Properties=species:S:1:pos:R:3:forces:R:3 energy=639640.1084960869 pbc="F F F"
Y        0.00000000       0.00000000       0.00000000       0.00000000       0.00000000 -18958916.00000000
Y        0.00000000       0.00000000       0.35636364       0.00000000       0.00000000 18958916.00000000
2
Properties=species:S:1:pos:R:3:forces:R:3 energy=133662.93662108688 pbc="F F F"
Y        0.00000000       0.00000000       0.00000000       0.00000000       0.00000000 -3997052.75000000
Y        0.00000000       0.00000000       0.41515152       0.00000000       0.00000000 3997052.75000000
2
Properties=species:S:1:pos:R:3:forces:R:3 energy=20342.80576171187 pbc="F F F"
Y        0.00000000       0.00000000       0.00000000       0.00000000       0.00000000 -518798.62500000
Y        0.00000000       0.00000000       0.47393939       0.00000000       0.00000000  518798.62500000
2
Properties=species:S:1:pos:R:3:forces:R:3 energy=4387.588476574627 pbc="F F F"
Y        0.00000000       0.00000000       0.00000000       0.00000000       0.00000000 -115703.47656250
Y        0.00000000       0.00000000       0.53272727       0.00000000       0.00000000  115703.47656250
2
Properties=species:S:1:pos:R:3:forces:R:3 energy=1150.9632324593445 pbc="F F F"
Y        0.00000000       0.00000000       0.00000000       0.00000000       0.00000000  -23885.89062500
Y        0.00000000       0.00000000       0.59151515       0.00000000       0.00000000   23885.89062500
2
Properties=species:S:1:pos:R:3:forces:R:3 energy=456.6882691247876 pbc="F F F"
Y        0.00000000       0.00000000       0.00000000       0.00000000       0.00000000   -3593.47192383
Y        0.00000000       0.00000000       0.65030303       0.00000000       0.00000000    3593.47192383
2
Properties=species:S:1:pos:R:3:forces:R:3 energy=342.21884780142534 pbc="F F F"
Y        0.00000000       0.00000000       0.00000000       0.00000000       0.00000000    -961.43090820
Y        0.00000000       0.00000000       0.70909091       0.00000000       0.00000000     961.43090820
2
Properties=species:S:1:pos:R:3:forces:R:3 energy=288.7118898886475 pbc="F F F"
Y        0.00000000       0.00000000       0.00000000       0.00000000       0.00000000    -608.09698486
Y        0.00000000       0.00000000       0.76787879       0.00000000       0.00000000     608.09698486
2
Properties=species:S:1:pos:R:3:forces:R:3 energy=269.06119423358604 pbc="F F F"
Y        0.00000000       0.00000000       0.00000000       0.00000000       0.00000000    -386.04202271
Y        0.00000000       0.00000000       0.82666667       0.00000000       0.00000000     386.04202271
2
Properties=species:S:1:pos:R:3:forces:R:3 energy=264.3779668972642 pbc="F F F"
Y        0.00000000       0.00000000       0.00000000       0.00000000       0.00000000    -363.57974243
Y        0.00000000       0.00000000       0.88545455       0.00000000       0.00000000     363.57974243
2
Properties=species:S:1:pos:R:3:forces:R:3 energy=212.51918728147723 pbc="F F F"
Y        0.00000000       0.00000000       0.00000000       0.00000000       0.00000000   -1432.98510742
Y        0.00000000       0.00000000       0.94424242       0.00000000       0.00000000    1432.98510742
2
Properties=species:S:1:pos:R:3:forces:R:3 energy=128.65239690913845 pbc="F F F"
Y        0.00000000       0.00000000       0.00000000       0.00000000       0.00000000   -1186.88122559
Y        0.00000000       0.00000000       1.00303030       0.00000000       0.00000000    1186.88122559
2
Properties=species:S:1:pos:R:3:forces:R:3 energy=72.85515623673072 pbc="F F F"
Y        0.00000000       0.00000000       0.00000000       0.00000000       0.00000000    -769.57385254
Y        0.00000000       0.00000000       1.06181818       0.00000000       0.00000000     769.57385254
2
Properties=species:S:1:pos:R:3:forces:R:3 energy=40.32892708792445 pbc="F F F"
Y        0.00000000       0.00000000       0.00000000       0.00000000       0.00000000    -328.38510132
Y        0.00000000       0.00000000       1.12060606       0.00000000       0.00000000     328.38510132
2
Properties=species:S:1:pos:R:3:forces:R:3 energy=29.657777805408983 pbc="F F F"
Y        0.00000000       0.00000000       0.00000000       0.00000000       0.00000000    -128.17955017
Y        0.00000000       0.00000000       1.17939394       0.00000000       0.00000000     128.17955017
2
Properties=species:S:1:pos:R:3:forces:R:3 energy=27.80028465493335 pbc="F F F"
Y        0.00000000       0.00000000       0.00000000       0.00000000       0.00000000      16.29386711
Y        0.00000000       0.00000000       1.23818182       0.00000000       0.00000000     -16.29386711
2
Properties=species:S:1:pos:R:3:forces:R:3 energy=26.08441248256884 pbc="F F F"
Y        0.00000000       0.00000000       0.00000000       0.00000000       0.00000000     -74.36984253
Y        0.00000000       0.00000000       1.29696970       0.00000000       0.00000000      74.36984253
2
Properties=species:S:1:pos:R:3:forces:R:3 energy=20.847350066039375 pbc="F F F"
Y        0.00000000       0.00000000       0.00000000       0.00000000       0.00000000     -91.93507385
Y        0.00000000       0.00000000       1.35575758       0.00000000       0.00000000      91.93507385
2
Properties=species:S:1:pos:R:3:forces:R:3 energy=15.621613986207448 pbc="F F F"
Y        0.00000000       0.00000000       0.00000000       0.00000000       0.00000000     -84.66197205
Y        0.00000000       0.00000000       1.41454545       0.00000000       0.00000000      84.66197205
2
Properties=species:S:1:pos:R:3:forces:R:3 energy=11.174751939193955 pbc="F F F"
Y        0.00000000       0.00000000       0.00000000       0.00000000       0.00000000     -63.91297531
Y        0.00000000       0.00000000       1.47333333       0.00000000       0.00000000      63.91297531
2
Properties=species:S:1:pos:R:3:forces:R:3 energy=8.186958881105536 pbc="F F F"
Y        0.00000000       0.00000000       0.00000000       0.00000000       0.00000000     -39.85254288
Y        0.00000000       0.00000000       1.53212121       0.00000000       0.00000000      39.85254288
2
Properties=species:S:1:pos:R:3:forces:R:3 energy=6.238603012325483 pbc="F F F"
Y        0.00000000       0.00000000       0.00000000       0.00000000       0.00000000     -28.36957359
Y        0.00000000       0.00000000       1.59090909       0.00000000       0.00000000      28.36957359
2
Properties=species:S:1:pos:R:3:forces:R:3 energy=4.739123546480746 pbc="F F F"
Y        0.00000000       0.00000000       0.00000000       0.00000000       0.00000000     -22.48107529
Y        0.00000000       0.00000000       1.64969697       0.00000000       0.00000000      22.48107529
2
Properties=species:S:1:pos:R:3:forces:R:3 energy=3.496149279889872 pbc="F F F"
Y        0.00000000       0.00000000       0.00000000       0.00000000       0.00000000     -20.54249382
Y        0.00000000       0.00000000       1.70848485       0.00000000       0.00000000      20.54249382
2
Properties=species:S:1:pos:R:3:forces:R:3 energy=2.3564345020614486 pbc="F F F"
Y        0.00000000       0.00000000       0.00000000       0.00000000       0.00000000     -17.98655891
Y        0.00000000       0.00000000       1.76727273       0.00000000       0.00000000      17.98655891
2
Properties=species:S:1:pos:R:3:forces:R:3 energy=1.3547579853642175 pbc="F F F"
Y        0.00000000       0.00000000       0.00000000       0.00000000       0.00000000     -16.05117989
Y        0.00000000       0.00000000       1.82606061       0.00000000       0.00000000      16.05117989
2
Properties=species:S:1:pos:R:3:forces:R:3 energy=0.4886595224945564 pbc="F F F"
Y        0.00000000       0.00000000       0.00000000       0.00000000       0.00000000     -13.60849094
Y        0.00000000       0.00000000       1.88484848       0.00000000       0.00000000      13.60849094
2
Properties=species:S:1:pos:R:3:forces:R:3 energy=-0.2663433791794775 pbc="F F F"
Y        0.00000000       0.00000000       0.00000000       0.00000000       0.00000000     -12.11185169
Y        0.00000000       0.00000000       1.94363636       0.00000000       0.00000000      12.11185169
2
Properties=species:S:1:pos:R:3:forces:R:3 energy=-0.9371974180243998 pbc="F F F"
Y        0.00000000       0.00000000       0.00000000       0.00000000       0.00000000     -10.70626259
Y        0.00000000       0.00000000       2.00242424       0.00000000       0.00000000      10.70626259
2
Properties=species:S:1:pos:R:3:forces:R:3 energy=-1.5275148272467645 pbc="F F F"
Y        0.00000000       0.00000000       0.00000000       0.00000000       0.00000000      -9.41431999
Y        0.00000000       0.00000000       2.06121212       0.00000000       0.00000000       9.41431999
2
Properties=species:S:1:pos:R:3:forces:R:3 energy=-2.041092719821977 pbc="F F F"
Y        0.00000000       0.00000000       0.00000000       0.00000000       0.00000000      -7.99714422
Y        0.00000000       0.00000000       2.12000000       0.00000000       0.00000000       7.99714422
2
Properties=species:S:1:pos:R:3:forces:R:3 energy=-2.472973674905808 pbc="F F F"
Y        0.00000000       0.00000000       0.00000000       0.00000000       0.00000000      -6.84797430
Y        0.00000000       0.00000000       2.17878788       0.00000000       0.00000000       6.84797430
2
Properties=species:S:1:pos:R:3:forces:R:3 energy=-2.8590899609591074 pbc="F F F"
Y        0.00000000       0.00000000       0.00000000       0.00000000       0.00000000      -6.32541227
Y        0.00000000       0.00000000       2.23757576       0.00000000       0.00000000       6.32541227
2
Properties=species:S:1:pos:R:3:forces:R:3 energy=-3.2196916639976063 pbc="F F F"
Y        0.00000000       0.00000000       0.00000000       0.00000000       0.00000000      -5.94364500
Y        0.00000000       0.00000000       2.29636364       0.00000000       0.00000000       5.94364500
2
Properties=species:S:1:pos:R:3:forces:R:3 energy=-3.5548226276972823 pbc="F F F"
Y        0.00000000       0.00000000       0.00000000       0.00000000       0.00000000      -5.44078827
Y        0.00000000       0.00000000       2.35515152       0.00000000       0.00000000       5.44078827
2
Properties=species:S:1:pos:R:3:forces:R:3 energy=-3.860441490751776 pbc="F F F"
Y        0.00000000       0.00000000       0.00000000       0.00000000       0.00000000      -4.96760416
Y        0.00000000       0.00000000       2.41393939       0.00000000       0.00000000       4.96760416
2
Properties=species:S:1:pos:R:3:forces:R:3 energy=-4.139179291552562 pbc="F F F"
Y        0.00000000       0.00000000       0.00000000       0.00000000       0.00000000      -4.51586056
Y        0.00000000       0.00000000       2.47272727       0.00000000       0.00000000       4.51586056
2
Properties=species:S:1:pos:R:3:forces:R:3 energy=-4.390910119427597 pbc="F F F"
Y        0.00000000       0.00000000       0.00000000       0.00000000       0.00000000      -4.04192924
Y        0.00000000       0.00000000       2.53151515       0.00000000       0.00000000       4.04192924
2
Properties=species:S:1:pos:R:3:forces:R:3 energy=-4.615270791877355 pbc="F F F"
Y        0.00000000       0.00000000       0.00000000       0.00000000       0.00000000      -3.61269569
Y        0.00000000       0.00000000       2.59030303       0.00000000       0.00000000       3.61269569
2
Properties=species:S:1:pos:R:3:forces:R:3 energy=-4.818255376096571 pbc="F F F"
Y        0.00000000       0.00000000       0.00000000       0.00000000       0.00000000      -3.30673814
Y        0.00000000       0.00000000       2.64909091       0.00000000       0.00000000       3.30673814
2
Properties=species:S:1:pos:R:3:forces:R:3 energy=-5.004279826386511 pbc="F F F"
Y        0.00000000       0.00000000       0.00000000       0.00000000       0.00000000      -3.01364422
Y        0.00000000       0.00000000       2.70787879       0.00000000       0.00000000       3.01364422
2
Properties=species:S:1:pos:R:3:forces:R:3 energy=-5.17119999886967 pbc="F F F"
Y        0.00000000       0.00000000       0.00000000       0.00000000       0.00000000      -2.65466309
Y        0.00000000       0.00000000       2.76666667       0.00000000       0.00000000       2.65466309
2
Properties=species:S:1:pos:R:3:forces:R:3 energy=-5.3157901616574055 pbc="F F F"
Y        0.00000000       0.00000000       0.00000000       0.00000000       0.00000000      -2.26441693
Y        0.00000000       0.00000000       2.82545455       0.00000000       0.00000000       2.26441693
2
Properties=species:S:1:pos:R:3:forces:R:3 energy=-5.437840771349042 pbc="F F F"
Y        0.00000000       0.00000000       0.00000000       0.00000000       0.00000000      -1.89339709
Y        0.00000000       0.00000000       2.88424242       0.00000000       0.00000000       1.89339709
2
Properties=species:S:1:pos:R:3:forces:R:3 energy=-5.5391269582335525 pbc="F F F"
Y        0.00000000       0.00000000       0.00000000       0.00000000       0.00000000      -1.55821741
Y        0.00000000       0.00000000       2.94303030       0.00000000       0.00000000       1.55821741
2
Properties=species:S:1:pos:R:3:forces:R:3 energy=-5.621650837200907 pbc="F F F"
Y        0.00000000       0.00000000       0.00000000       0.00000000       0.00000000      -1.25354517
Y        0.00000000       0.00000000       3.00181818       0.00000000       0.00000000       1.25354517
2
Properties=species:S:1:pos:R:3:forces:R:3 energy=-5.68697634928136 pbc="F F F"
Y        0.00000000       0.00000000       0.00000000       0.00000000       0.00000000      -0.97302842
Y        0.00000000       0.00000000       3.06060606       0.00000000       0.00000000       0.97302842
2
Properties=species:S:1:pos:R:3:forces:R:3 energy=-5.736644701236886 pbc="F F F"
Y        0.00000000       0.00000000       0.00000000       0.00000000       0.00000000      -0.72276974
Y        0.00000000       0.00000000       3.11939394       0.00000000       0.00000000       0.72276974
2
Properties=species:S:1:pos:R:3:forces:R:3 energy=-5.772752519321014 pbc="F F F"
Y        0.00000000       0.00000000       0.00000000       0.00000000       0.00000000      -0.51287085
Y        0.00000000       0.00000000       3.17818182       0.00000000       0.00000000       0.51287085
2
Properties=species:S:1:pos:R:3:forces:R:3 energy=-5.797802555923236 pbc="F F F"
Y        0.00000000       0.00000000       0.00000000       0.00000000       0.00000000      -0.34631684
Y        0.00000000       0.00000000       3.23696970       0.00000000       0.00000000       0.34631684
2
Properties=species:S:1:pos:R:3:forces:R:3 energy=-5.814231968153049 pbc="F F F"
Y        0.00000000       0.00000000       0.00000000       0.00000000       0.00000000      -0.21851175
Y        0.00000000       0.00000000       3.29575758       0.00000000       0.00000000       0.21851175
2
Properties=species:S:1:pos:R:3:forces:R:3 energy=-5.8240953738176255 pbc="F F F"
Y        0.00000000       0.00000000       0.00000000       0.00000000       0.00000000      -0.12155025
Y        0.00000000       0.00000000       3.35454545       0.00000000       0.00000000       0.12155025
2
Properties=species:S:1:pos:R:3:forces:R:3 energy=-5.82895141964484 pbc="F F F"
Y        0.00000000       0.00000000       0.00000000       0.00000000       0.00000000      -0.04621051
Y        0.00000000       0.00000000       3.41333333       0.00000000       0.00000000       0.04621051
2
Properties=species:S:1:pos:R:3:forces:R:3 energy=-5.829695038953913 pbc="F F F"
Y        0.00000000       0.00000000       0.00000000       0.00000000       0.00000000       0.02073938
Y        0.00000000       0.00000000       3.47212121       0.00000000       0.00000000      -0.02073938
2
Properties=species:S:1:pos:R:3:forces:R:3 energy=-5.8263842100007865 pbc="F F F"
Y        0.00000000       0.00000000       0.00000000       0.00000000       0.00000000       0.09391988
Y        0.00000000       0.00000000       3.53090909       0.00000000       0.00000000      -0.09391988
2
Properties=species:S:1:pos:R:3:forces:R:3 energy=-5.818419393979165 pbc="F F F"
Y        0.00000000       0.00000000       0.00000000       0.00000000       0.00000000       0.17844278
Y        0.00000000       0.00000000       3.58969697       0.00000000       0.00000000      -0.17844278
2
Properties=species:S:1:pos:R:3:forces:R:3 energy=-5.805335838917677 pbc="F F F"
Y        0.00000000       0.00000000       0.00000000       0.00000000       0.00000000       0.26631021
Y        0.00000000       0.00000000       3.64848485       0.00000000       0.00000000      -0.26631021
2
Properties=species:S:1:pos:R:3:forces:R:3 energy=-5.787262704147712 pbc="F F F"
Y        0.00000000       0.00000000       0.00000000       0.00000000       0.00000000       0.34664810
Y        0.00000000       0.00000000       3.70727273       0.00000000       0.00000000      -0.34664810
2
Properties=species:S:1:pos:R:3:forces:R:3 energy=-5.76482017600911 pbc="F F F"
Y        0.00000000       0.00000000       0.00000000       0.00000000       0.00000000       0.41478163
Y        0.00000000       0.00000000       3.76606061       0.00000000       0.00000000      -0.41478163
2
Properties=species:S:1:pos:R:3:forces:R:3 energy=-5.738718912549481 pbc="F F F"
Y        0.00000000       0.00000000       0.00000000       0.00000000       0.00000000       0.47151124
Y        0.00000000       0.00000000       3.82484848       0.00000000       0.00000000      -0.47151124
2
Properties=species:S:1:pos:R:3:forces:R:3 energy=-5.70956241033679 pbc="F F F"
Y        0.00000000       0.00000000       0.00000000       0.00000000       0.00000000       0.51901555
Y        0.00000000       0.00000000       3.88363636       0.00000000       0.00000000      -0.51901555
2
Properties=species:S:1:pos:R:3:forces:R:3 energy=-5.6778450185254 pbc="F F F"
Y        0.00000000       0.00000000       0.00000000       0.00000000       0.00000000       0.55877090
Y        0.00000000       0.00000000       3.94242424       0.00000000       0.00000000      -0.55877090
2
Properties=species:S:1:pos:R:3:forces:R:3 energy=-5.643999941794993 pbc="F F F"
Y        0.00000000       0.00000000       0.00000000       0.00000000       0.00000000       0.59152234
Y        0.00000000       0.00000000       4.00121212       0.00000000       0.00000000      -0.59152234
2
Properties=species:S:1:pos:R:3:forces:R:3 energy=-5.608424766472421 pbc="F F F"
Y        0.00000000       0.00000000       0.00000000       0.00000000       0.00000000       0.61784369
Y        0.00000000       0.00000000       4.06000000       0.00000000       0.00000000      -0.61784369
2
Properties=species:S:1:pos:R:3:forces:R:3 energy=-5.571471422444217 pbc="F F F"
Y        0.00000000       0.00000000       0.00000000       0.00000000       0.00000000       0.63845438
Y        0.00000000       0.00000000       4.11878788       0.00000000       0.00000000      -0.63845438
2
Properties=species:S:1:pos:R:3:forces:R:3 energy=-5.533455581925057 pbc="F F F"
Y        0.00000000       0.00000000       0.00000000       0.00000000       0.00000000       0.65406996
Y        0.00000000       0.00000000       4.17757576       0.00000000       0.00000000      -0.65406996
2
Properties=species:S:1:pos:R:3:forces:R:3 energy=-5.494655616445021 pbc="F F F"
Y        0.00000000       0.00000000       0.00000000       0.00000000       0.00000000       0.66512108
Y        0.00000000       0.00000000       4.23636364       0.00000000       0.00000000      -0.66512108
2
Properties=species:S:1:pos:R:3:forces:R:3 energy=-5.455338988964187 pbc="F F F"
Y        0.00000000       0.00000000       0.00000000       0.00000000       0.00000000       0.67162097
Y        0.00000000       0.00000000       4.29515152       0.00000000       0.00000000      -0.67162097
2
Properties=species:S:1:pos:R:3:forces:R:3 energy=-5.415783874607666 pbc="F F F"
Y        0.00000000       0.00000000       0.00000000       0.00000000       0.00000000       0.67332369
Y        0.00000000       0.00000000       4.35393939       0.00000000       0.00000000      -0.67332369
2
Properties=species:S:1:pos:R:3:forces:R:3 energy=-5.3762736603672465 pbc="F F F"
Y        0.00000000       0.00000000       0.00000000       0.00000000       0.00000000       0.66996324
Y        0.00000000       0.00000000       4.41272727       0.00000000       0.00000000      -0.66996324
2
Properties=species:S:1:pos:R:3:forces:R:3 energy=-5.337112368617219 pbc="F F F"
Y        0.00000000       0.00000000       0.00000000       0.00000000       0.00000000       0.66148895
Y        0.00000000       0.00000000       4.47151515       0.00000000       0.00000000      -0.66148895
2
Properties=species:S:1:pos:R:3:forces:R:3 energy=-5.298595093210558 pbc="F F F"
Y        0.00000000       0.00000000       0.00000000       0.00000000       0.00000000       0.64814138
Y        0.00000000       0.00000000       4.53030303       0.00000000       0.00000000      -0.64814138
2
Properties=species:S:1:pos:R:3:forces:R:3 energy=-5.26099088402639 pbc="F F F"
Y        0.00000000       0.00000000       0.00000000       0.00000000       0.00000000       0.63043427
Y        0.00000000       0.00000000       4.58909091       0.00000000       0.00000000      -0.63043427
2
Properties=species:S:1:pos:R:3:forces:R:3 energy=-5.224540991676817 pbc="F F F"
Y        0.00000000       0.00000000       0.00000000       0.00000000       0.00000000       0.60911572
Y        0.00000000       0.00000000       4.64787879       0.00000000       0.00000000      -0.60911572
2
Properties=species:S:1:pos:R:3:forces:R:3 energy=-5.18942822955155 pbc="F F F"
Y        0.00000000       0.00000000       0.00000000       0.00000000       0.00000000       0.58511370
Y        0.00000000       0.00000000       4.70666667       0.00000000       0.00000000      -0.58511370
2
Properties=species:S:1:pos:R:3:forces:R:3 energy=-5.155778862159614 pbc="F F F"
Y        0.00000000       0.00000000       0.00000000       0.00000000       0.00000000       0.55953360
Y        0.00000000       0.00000000       4.76545455       0.00000000       0.00000000      -0.55953360
2
Properties=species:S:1:pos:R:3:forces:R:3 energy=-5.123645565704534 pbc="F F F"
Y        0.00000000       0.00000000       0.00000000       0.00000000       0.00000000       0.53357559
Y        0.00000000       0.00000000       4.82424242       0.00000000       0.00000000      -0.53357559
2
Properties=species:S:1:pos:R:3:forces:R:3 energy=-5.093027322196451 pbc="F F F"
Y        0.00000000       0.00000000       0.00000000       0.00000000       0.00000000       0.50839448
Y        0.00000000       0.00000000       4.88303030       0.00000000       0.00000000      -0.50839448
2
Properties=species:S:1:pos:R:3:forces:R:3 energy=-5.063840701516678 pbc="F F F"
Y        0.00000000       0.00000000       0.00000000       0.00000000       0.00000000       0.48489901
Y        0.00000000       0.00000000       4.94181818       0.00000000       0.00000000      -0.48489901
2
Properties=species:S:1:pos:R:3:forces:R:3 energy=-5.035969446146508 pbc="F F F"
Y        0.00000000       0.00000000       0.00000000       0.00000000       0.00000000       0.46352300
Y        0.00000000       0.00000000       5.00060606       0.00000000       0.00000000      -0.46352300
2
Properties=species:S:1:pos:R:3:forces:R:3 energy=-5.009301639122971 pbc="F F F"
Y        0.00000000       0.00000000       0.00000000       0.00000000       0.00000000       0.44404218
Y        0.00000000       0.00000000       5.05939394       0.00000000       0.00000000      -0.44404218
2
Properties=species:S:1:pos:R:3:forces:R:3 energy=-4.983745726432897 pbc="F F F"
Y        0.00000000       0.00000000       0.00000000       0.00000000       0.00000000       0.42553318
Y        0.00000000       0.00000000       5.11818182       0.00000000       0.00000000      -0.42553318
2
Properties=species:S:1:pos:R:3:forces:R:3 energy=-4.959279046697085 pbc="F F F"
Y        0.00000000       0.00000000       0.00000000       0.00000000       0.00000000       0.40651205
Y        0.00000000       0.00000000       5.17696970       0.00000000       0.00000000      -0.40651205
2
Properties=species:S:1:pos:R:3:forces:R:3 energy=-4.935992723555272 pbc="F F F"
Y        0.00000000       0.00000000       0.00000000       0.00000000       0.00000000       0.38525265
Y        0.00000000       0.00000000       5.23575758       0.00000000       0.00000000      -0.38525265
2
Properties=species:S:1:pos:R:3:forces:R:3 energy=-4.914063495923766 pbc="F F F"
Y        0.00000000       0.00000000       0.00000000       0.00000000       0.00000000       0.36014330
Y        0.00000000       0.00000000       5.29454545       0.00000000       0.00000000      -0.36014330
2
Properties=species:S:1:pos:R:3:forces:R:3 energy=-4.893745477051386 pbc="F F F"
Y        0.00000000       0.00000000       0.00000000       0.00000000       0.00000000       0.33013731
Y        0.00000000       0.00000000       5.35333333       0.00000000       0.00000000      -0.33013731
2
Properties=species:S:1:pos:R:3:forces:R:3 energy=-4.8753470445883265 pbc="F F F"
Y        0.00000000       0.00000000       0.00000000       0.00000000       0.00000000       0.29503712
Y        0.00000000       0.00000000       5.41212121       0.00000000       0.00000000      -0.29503712
2
Properties=species:S:1:pos:R:3:forces:R:3 energy=-4.8591427224103825 pbc="F F F"
Y        0.00000000       0.00000000       0.00000000       0.00000000       0.00000000       0.25564483
Y        0.00000000       0.00000000       5.47090909       0.00000000       0.00000000      -0.25564483
2
Properties=species:S:1:pos:R:3:forces:R:3 energy=-4.845336171054298 pbc="F F F"
Y        0.00000000       0.00000000       0.00000000       0.00000000       0.00000000       0.21370661
Y        0.00000000       0.00000000       5.52969697       0.00000000       0.00000000      -0.21370661
2
Properties=species:S:1:pos:R:3:forces:R:3 energy=-4.834015263654586 pbc="F F F"
Y        0.00000000       0.00000000       0.00000000       0.00000000       0.00000000       0.17164752
Y        0.00000000       0.00000000       5.58848485       0.00000000       0.00000000      -0.17164752
2
Properties=species:S:1:pos:R:3:forces:R:3 energy=-4.825105178503983 pbc="F F F"
Y        0.00000000       0.00000000       0.00000000       0.00000000       0.00000000       0.13220933
Y        0.00000000       0.00000000       5.64727273       0.00000000       0.00000000      -0.13220933
2
Properties=species:S:1:pos:R:3:forces:R:3 energy=-4.818372207415071 pbc="F F F"
Y        0.00000000       0.00000000       0.00000000       0.00000000       0.00000000       0.09792749
Y        0.00000000       0.00000000       5.70606061       0.00000000       0.00000000      -0.09792749
2
Properties=species:S:1:pos:R:3:forces:R:3 energy=-4.813447651431167 pbc="F F F"
Y        0.00000000       0.00000000       0.00000000       0.00000000       0.00000000       0.07074921
Y        0.00000000       0.00000000       5.76484848       0.00000000       0.00000000      -0.07074921
2
Properties=species:S:1:pos:R:3:forces:R:3 energy=-4.809887778763185 pbc="F F F"
Y        0.00000000       0.00000000       0.00000000       0.00000000       0.00000000       0.05164304
Y        0.00000000       0.00000000       5.82363636       0.00000000       0.00000000      -0.05164304
2
Properties=species:S:1:pos:R:3:forces:R:3 energy=-4.807223377840234 pbc="F F F"
Y        0.00000000       0.00000000       0.00000000       0.00000000       0.00000000       0.04030288
Y        0.00000000       0.00000000       5.88242424       0.00000000       0.00000000      -0.04030288
2
Properties=species:S:1:pos:R:3:forces:R:3 energy=-4.80503047176102 pbc="F F F"
Y        0.00000000       0.00000000       0.00000000       0.00000000       0.00000000       0.03512826
Y        0.00000000       0.00000000       5.94121212       0.00000000       0.00000000      -0.03512826
2
Properties=species:S:1:pos:R:3:forces:R:3 energy=-4.803025571683893 pbc="F F F"
Y        0.00000000       0.00000000       0.00000000       0.00000000       0.00000000       0.03343363
Y        0.00000000       0.00000000       6.00000000       0.00000000       0.00000000      -0.03343363
