2
Properties=species:S:1:pos:R:3:forces:R:3 energy=-102165.96438898212 pbc="F F F"
Yb       0.00000000       0.00000000       0.00000000       0.00000000       0.00000000 1220201.50000000
Yb       0.00000000       0.00000000       0.18000000       0.00000000       0.00000000 -1220201.50000000
2
Properties=species:S:1:pos:R:3:forces:R:3 energy=-43416.573763982116 pbc="F F F"
Yb       0.00000000       0.00000000       0.00000000       0.00000000       0.00000000  756045.68750000
Yb       0.00000000       0.00000000       0.23878788       0.00000000       0.00000000 -756045.68750000
2
Properties=species:S:1:pos:R:3:forces:R:3 energy=-5954.400912419618 pbc="F F F"
Yb       0.00000000       0.00000000       0.00000000       0.00000000       0.00000000  500255.37500000
Yb       0.00000000       0.00000000       0.29757576       0.00000000       0.00000000 -500255.37500000
2
Properties=species:S:1:pos:R:3:forces:R:3 energy=4929.117153992967 pbc="F F F"
Yb       0.00000000       0.00000000       0.00000000       0.00000000       0.00000000  -80510.57812500
Yb       0.00000000       0.00000000       0.35636364       0.00000000       0.00000000   80510.57812500
2
Properties=species:S:1:pos:R:3:forces:R:3 energy=541.3261383679671 pbc="F F F"
Yb       0.00000000       0.00000000       0.00000000       0.00000000       0.00000000  -54577.30078125
Yb       0.00000000       0.00000000       0.41515152       0.00000000       0.00000000   54577.30078125
2
Properties=species:S:1:pos:R:3:forces:R:3 energy=-184.55929863741602 pbc="F F F"
Yb       0.00000000       0.00000000       0.00000000       0.00000000       0.00000000    -157.98184204
Yb       0.00000000       0.00000000       0.47393939       0.00000000       0.00000000     157.98184204
2
Properties=species:S:1:pos:R:3:forces:R:3 energy=-97.98123465990099 pbc="F F F"
Yb       0.00000000       0.00000000       0.00000000       0.00000000       0.00000000    1711.92480469
Yb       0.00000000       0.00000000       0.53272727       0.00000000       0.00000000   -1711.92480469
2
Properties=species:S:1:pos:R:3:forces:R:3 energy=-25.410464364550887 pbc="F F F"
Yb       0.00000000       0.00000000       0.00000000       0.00000000       0.00000000     204.27427673
Yb       0.00000000       0.00000000       0.59151515       0.00000000       0.00000000    -204.27427673
2
Properties=species:S:1:pos:R:3:forces:R:3 energy=-23.232184449828036 pbc="F F F"
Yb       0.00000000       0.00000000       0.00000000       0.00000000       0.00000000    -548.12823486
Yb       0.00000000       0.00000000       0.65030303       0.00000000       0.00000000     548.12823486
2
Properties=species:S:1:pos:R:3:forces:R:3 energy=-33.857996910653526 pbc="F F F"
Yb       0.00000000       0.00000000       0.00000000       0.00000000       0.00000000     581.80310059
Yb       0.00000000       0.00000000       0.70909091       0.00000000       0.00000000    -581.80310059
2
Properties=species:S:1:pos:R:3:forces:R:3 energy=-1.6572245301574382 pbc="F F F"
Yb       0.00000000       0.00000000       0.00000000       0.00000000       0.00000000     565.66290283
Yb       0.00000000       0.00000000       0.76787879       0.00000000       0.00000000    -565.66290283
2
Properties=species:S:1:pos:R:3:forces:R:3 energy=30.641967096812575 pbc="F F F"
Yb       0.00000000       0.00000000       0.00000000       0.00000000       0.00000000     515.20880127
Yb       0.00000000       0.00000000       0.82666667       0.00000000       0.00000000    -515.20880127
2
Properties=species:S:1:pos:R:3:forces:R:3 energy=49.27325584700251 pbc="F F F"
Yb       0.00000000       0.00000000       0.00000000       0.00000000       0.00000000     183.03775024
Yb       0.00000000       0.00000000       0.88545455       0.00000000       0.00000000    -183.03775024
2
Properties=species:S:1:pos:R:3:forces:R:3 energy=52.89399894262935 pbc="F F F"
Yb       0.00000000       0.00000000       0.00000000       0.00000000       0.00000000     -68.17384338
Yb       0.00000000       0.00000000       0.94424242       0.00000000       0.00000000      68.17384338
2
Properties=species:S:1:pos:R:3:forces:R:3 energy=46.56686999043256 pbc="F F F"
Yb       0.00000000       0.00000000       0.00000000       0.00000000       0.00000000    -109.86692810
Yb       0.00000000       0.00000000       1.00303030       0.00000000       0.00000000     109.86692810
2
Properties=species:S:1:pos:R:3:forces:R:3 energy=41.25181089243967 pbc="F F F"
Yb       0.00000000       0.00000000       0.00000000       0.00000000       0.00000000     -90.89529419
Yb       0.00000000       0.00000000       1.06181818       0.00000000       0.00000000      90.89529419
2
Properties=species:S:1:pos:R:3:forces:R:3 energy=36.2115627565248 pbc="F F F"
Yb       0.00000000       0.00000000       0.00000000       0.00000000       0.00000000     -69.57223511
Yb       0.00000000       0.00000000       1.12060606       0.00000000       0.00000000      69.57223511
2
Properties=species:S:1:pos:R:3:forces:R:3 energy=32.32317032377877 pbc="F F F"
Yb       0.00000000       0.00000000       0.00000000       0.00000000       0.00000000     -64.25729370
Yb       0.00000000       0.00000000       1.17939394       0.00000000       0.00000000      64.25729370
2
Properties=species:S:1:pos:R:3:forces:R:3 energy=29.308521239723348 pbc="F F F"
Yb       0.00000000       0.00000000       0.00000000       0.00000000       0.00000000     -38.75340652
Yb       0.00000000       0.00000000       1.23818182       0.00000000       0.00000000      38.75340652
2
Properties=species:S:1:pos:R:3:forces:R:3 energy=27.489686630483153 pbc="F F F"
Yb       0.00000000       0.00000000       0.00000000       0.00000000       0.00000000     -28.36620331
Yb       0.00000000       0.00000000       1.29696970       0.00000000       0.00000000      28.36620331
2
Properties=species:S:1:pos:R:3:forces:R:3 energy=25.81650140202995 pbc="F F F"
Yb       0.00000000       0.00000000       0.00000000       0.00000000       0.00000000     -28.24833870
Yb       0.00000000       0.00000000       1.35575758       0.00000000       0.00000000      28.24833870
2
Properties=species:S:1:pos:R:3:forces:R:3 energy=23.929703176632103 pbc="F F F"
Yb       0.00000000       0.00000000       0.00000000       0.00000000       0.00000000     -37.20592117
Yb       0.00000000       0.00000000       1.41454545       0.00000000       0.00000000      37.20592117
2
Properties=species:S:1:pos:R:3:forces:R:3 energy=21.688441994856888 pbc="F F F"
Yb       0.00000000       0.00000000       0.00000000       0.00000000       0.00000000     -34.82916260
Yb       0.00000000       0.00000000       1.47333333       0.00000000       0.00000000      34.82916260
2
Properties=species:S:1:pos:R:3:forces:R:3 energy=19.984886009454204 pbc="F F F"
Yb       0.00000000       0.00000000       0.00000000       0.00000000       0.00000000     -25.65166092
Yb       0.00000000       0.00000000       1.53212121       0.00000000       0.00000000      25.65166092
2
Properties=species:S:1:pos:R:3:forces:R:3 energy=18.422087499090452 pbc="F F F"
Yb       0.00000000       0.00000000       0.00000000       0.00000000       0.00000000     -28.61503983
Yb       0.00000000       0.00000000       1.59090909       0.00000000       0.00000000      28.61503983
2
Properties=species:S:1:pos:R:3:forces:R:3 energy=16.665308838111137 pbc="F F F"
Yb       0.00000000       0.00000000       0.00000000       0.00000000       0.00000000     -30.22842789
Yb       0.00000000       0.00000000       1.64969697       0.00000000       0.00000000      30.22842789
2
Properties=species:S:1:pos:R:3:forces:R:3 energy=14.834442305268691 pbc="F F F"
Yb       0.00000000       0.00000000       0.00000000       0.00000000       0.00000000     -32.27437592
Yb       0.00000000       0.00000000       1.70848485       0.00000000       0.00000000      32.27437592
2
Properties=species:S:1:pos:R:3:forces:R:3 energy=12.96958822630256 pbc="F F F"
Yb       0.00000000       0.00000000       0.00000000       0.00000000       0.00000000     -30.72861671
Yb       0.00000000       0.00000000       1.76727273       0.00000000       0.00000000      30.72861671
2
Properties=species:S:1:pos:R:3:forces:R:3 energy=11.172351278294572 pbc="F F F"
Yb       0.00000000       0.00000000       0.00000000       0.00000000       0.00000000     -30.59455681
Yb       0.00000000       0.00000000       1.82606061       0.00000000       0.00000000      30.59455681
2
Properties=species:S:1:pos:R:3:forces:R:3 energy=9.429763632309074 pbc="F F F"
Yb       0.00000000       0.00000000       0.00000000       0.00000000       0.00000000     -28.35119629
Yb       0.00000000       0.00000000       1.88484848       0.00000000       0.00000000      28.35119629
2
Properties=species:S:1:pos:R:3:forces:R:3 energy=7.853392606537606 pbc="F F F"
Yb       0.00000000       0.00000000       0.00000000       0.00000000       0.00000000     -25.17718697
Yb       0.00000000       0.00000000       1.94363636       0.00000000       0.00000000      25.17718697
2
Properties=species:S:1:pos:R:3:forces:R:3 energy=6.482262851782796 pbc="F F F"
Yb       0.00000000       0.00000000       0.00000000       0.00000000       0.00000000     -21.37871170
Yb       0.00000000       0.00000000       2.00242424       0.00000000       0.00000000      21.37871170
2
Properties=species:S:1:pos:R:3:forces:R:3 energy=5.335895978267334 pbc="F F F"
Yb       0.00000000       0.00000000       0.00000000       0.00000000       0.00000000     -17.73448181
Yb       0.00000000       0.00000000       2.06121212       0.00000000       0.00000000      17.73448181
2
Properties=species:S:1:pos:R:3:forces:R:3 energy=4.392109876187691 pbc="F F F"
Yb       0.00000000       0.00000000       0.00000000       0.00000000       0.00000000     -14.38513756
Yb       0.00000000       0.00000000       2.12000000       0.00000000       0.00000000      14.38513756
2
Properties=species:S:1:pos:R:3:forces:R:3 energy=3.6323026368300813 pbc="F F F"
Yb       0.00000000       0.00000000       0.00000000       0.00000000       0.00000000     -11.62975502
Yb       0.00000000       0.00000000       2.17878788       0.00000000       0.00000000      11.62975502
2
Properties=species:S:1:pos:R:3:forces:R:3 energy=3.01306250146812 pbc="F F F"
Yb       0.00000000       0.00000000       0.00000000       0.00000000       0.00000000      -9.47184944
Yb       0.00000000       0.00000000       2.23757576       0.00000000       0.00000000       9.47184944
2
Properties=species:S:1:pos:R:3:forces:R:3 energy=2.513235617616338 pbc="F F F"
Yb       0.00000000       0.00000000       0.00000000       0.00000000       0.00000000      -7.59199476
Yb       0.00000000       0.00000000       2.29636364       0.00000000       0.00000000       7.59199476
2
Properties=species:S:1:pos:R:3:forces:R:3 energy=2.1121325848526435 pbc="F F F"
Yb       0.00000000       0.00000000       0.00000000       0.00000000       0.00000000      -6.14370871
Yb       0.00000000       0.00000000       2.35515152       0.00000000       0.00000000       6.14370871
2
Properties=species:S:1:pos:R:3:forces:R:3 energy=1.7811123359968375 pbc="F F F"
Yb       0.00000000       0.00000000       0.00000000       0.00000000       0.00000000      -5.17055130
Yb       0.00000000       0.00000000       2.41393939       0.00000000       0.00000000       5.17055130
2
Properties=species:S:1:pos:R:3:forces:R:3 energy=1.5002609472302415 pbc="F F F"
Yb       0.00000000       0.00000000       0.00000000       0.00000000       0.00000000      -4.41328049
Yb       0.00000000       0.00000000       2.47272727       0.00000000       0.00000000       4.41328049
2
Properties=species:S:1:pos:R:3:forces:R:3 energy=1.2598307199678664 pbc="F F F"
Yb       0.00000000       0.00000000       0.00000000       0.00000000       0.00000000      -3.77660942
Yb       0.00000000       0.00000000       2.53151515       0.00000000       0.00000000       3.77660942
2
Properties=species:S:1:pos:R:3:forces:R:3 energy=1.0543073539291161 pbc="F F F"
Yb       0.00000000       0.00000000       0.00000000       0.00000000       0.00000000      -3.24341106
Yb       0.00000000       0.00000000       2.59030303       0.00000000       0.00000000       3.24341106
2
Properties=species:S:1:pos:R:3:forces:R:3 energy=0.8748292406818288 pbc="F F F"
Yb       0.00000000       0.00000000       0.00000000       0.00000000       0.00000000      -2.88846636
Yb       0.00000000       0.00000000       2.64909091       0.00000000       0.00000000       2.88846636
2
Properties=species:S:1:pos:R:3:forces:R:3 energy=0.7129311755277723 pbc="F F F"
Yb       0.00000000       0.00000000       0.00000000       0.00000000       0.00000000      -2.62430382
Yb       0.00000000       0.00000000       2.70787879       0.00000000       0.00000000       2.62430382
2
Properties=species:S:1:pos:R:3:forces:R:3 energy=0.5663615617564612 pbc="F F F"
Yb       0.00000000       0.00000000       0.00000000       0.00000000       0.00000000      -2.35927010
Yb       0.00000000       0.00000000       2.76666667       0.00000000       0.00000000       2.35927010
2
Properties=species:S:1:pos:R:3:forces:R:3 energy=0.4356866234945607 pbc="F F F"
Yb       0.00000000       0.00000000       0.00000000       0.00000000       0.00000000      -2.08748770
Yb       0.00000000       0.00000000       2.82545455       0.00000000       0.00000000       2.08748770
2
Properties=species:S:1:pos:R:3:forces:R:3 energy=0.3204936318473011 pbc="F F F"
Yb       0.00000000       0.00000000       0.00000000       0.00000000       0.00000000      -1.83720791
Yb       0.00000000       0.00000000       2.88424242       0.00000000       0.00000000       1.83720791
2
Properties=species:S:1:pos:R:3:forces:R:3 energy=0.21887468032547208 pbc="F F F"
Yb       0.00000000       0.00000000       0.00000000       0.00000000       0.00000000      -1.62689281
Yb       0.00000000       0.00000000       2.94303030       0.00000000       0.00000000       1.62689281
2
Properties=species:S:1:pos:R:3:forces:R:3 energy=0.12850845729498983 pbc="F F F"
Yb       0.00000000       0.00000000       0.00000000       0.00000000       0.00000000      -1.45199275
Yb       0.00000000       0.00000000       3.00181818       0.00000000       0.00000000       1.45199275
2
Properties=species:S:1:pos:R:3:forces:R:3 energy=0.047773304281384696 pbc="F F F"
Yb       0.00000000       0.00000000       0.00000000       0.00000000       0.00000000      -1.29706776
Yb       0.00000000       0.00000000       3.06060606       0.00000000       0.00000000       1.29706776
2
Properties=species:S:1:pos:R:3:forces:R:3 energy=-0.02425856943254008 pbc="F F F"
Yb       0.00000000       0.00000000       0.00000000       0.00000000       0.00000000      -1.15597737
Yb       0.00000000       0.00000000       3.11939394       0.00000000       0.00000000       1.15597737
2
Properties=species:S:1:pos:R:3:forces:R:3 energy=-0.08845378002355679 pbc="F F F"
Yb       0.00000000       0.00000000       0.00000000       0.00000000       0.00000000      -1.03070080
Yb       0.00000000       0.00000000       3.17818182       0.00000000       0.00000000       1.03070080
2
Properties=species:S:1:pos:R:3:forces:R:3 energy=-0.1457623331503246 pbc="F F F"
Yb       0.00000000       0.00000000       0.00000000       0.00000000       0.00000000      -0.92136312
Yb       0.00000000       0.00000000       3.23696970       0.00000000       0.00000000       0.92136312
2
Properties=species:S:1:pos:R:3:forces:R:3 energy=-0.197018656145533 pbc="F F F"
Yb       0.00000000       0.00000000       0.00000000       0.00000000       0.00000000      -0.82402194
Yb       0.00000000       0.00000000       3.29575758       0.00000000       0.00000000       0.82402194
2
Properties=species:S:1:pos:R:3:forces:R:3 energy=-0.24279011585505614 pbc="F F F"
Yb       0.00000000       0.00000000       0.00000000       0.00000000       0.00000000      -0.73418802
Yb       0.00000000       0.00000000       3.35454545       0.00000000       0.00000000       0.73418802
2
Properties=species:S:1:pos:R:3:forces:R:3 energy=-0.28344791531906216 pbc="F F F"
Yb       0.00000000       0.00000000       0.00000000       0.00000000       0.00000000      -0.64975798
Yb       0.00000000       0.00000000       3.41333333       0.00000000       0.00000000       0.64975798
2
Properties=species:S:1:pos:R:3:forces:R:3 energy=-0.3192754245059455 pbc="F F F"
Yb       0.00000000       0.00000000       0.00000000       0.00000000       0.00000000      -0.56982052
Yb       0.00000000       0.00000000       3.47212121       0.00000000       0.00000000       0.56982052
2
Properties=species:S:1:pos:R:3:forces:R:3 energy=-0.35050442627199424 pbc="F F F"
Yb       0.00000000       0.00000000       0.00000000       0.00000000       0.00000000      -0.49297538
Yb       0.00000000       0.00000000       3.53090909       0.00000000       0.00000000       0.49297538
2
Properties=species:S:1:pos:R:3:forces:R:3 energy=-0.37727411470142946 pbc="F F F"
Yb       0.00000000       0.00000000       0.00000000       0.00000000       0.00000000      -0.41800338
Yb       0.00000000       0.00000000       3.58969697       0.00000000       0.00000000       0.41800338
2
Properties=species:S:1:pos:R:3:forces:R:3 energy=-0.39968654760093103 pbc="F F F"
Yb       0.00000000       0.00000000       0.00000000       0.00000000       0.00000000      -0.34482729
Yb       0.00000000       0.00000000       3.64848485       0.00000000       0.00000000       0.34482729
2
Properties=species:S:1:pos:R:3:forces:R:3 energy=-0.4178680317801598 pbc="F F F"
Yb       0.00000000       0.00000000       0.00000000       0.00000000       0.00000000      -0.27425939
Yb       0.00000000       0.00000000       3.70727273       0.00000000       0.00000000       0.27425939
2
Properties=species:S:1:pos:R:3:forces:R:3 energy=-0.4320011218265118 pbc="F F F"
Yb       0.00000000       0.00000000       0.00000000       0.00000000       0.00000000      -0.20721847
Yb       0.00000000       0.00000000       3.76606061       0.00000000       0.00000000       0.20721847
2
Properties=species:S:1:pos:R:3:forces:R:3 energy=-0.44231179618700095 pbc="F F F"
Yb       0.00000000       0.00000000       0.00000000       0.00000000       0.00000000      -0.14427999
Yb       0.00000000       0.00000000       3.82484848       0.00000000       0.00000000       0.14427999
2
Properties=species:S:1:pos:R:3:forces:R:3 energy=-0.44904932230166167 pbc="F F F"
Yb       0.00000000       0.00000000       0.00000000       0.00000000       0.00000000      -0.08565518
Yb       0.00000000       0.00000000       3.88363636       0.00000000       0.00000000       0.08565518
2
Properties=species:S:1:pos:R:3:forces:R:3 energy=-0.4524678056741976 pbc="F F F"
Yb       0.00000000       0.00000000       0.00000000       0.00000000       0.00000000      -0.03137632
Yb       0.00000000       0.00000000       3.94242424       0.00000000       0.00000000       0.03137632
2
Properties=species:S:1:pos:R:3:forces:R:3 energy=-0.4528246833327755 pbc="F F F"
Yb       0.00000000       0.00000000       0.00000000       0.00000000       0.00000000       0.01856152
Yb       0.00000000       0.00000000       4.00121212       0.00000000       0.00000000      -0.01856152
2
Properties=species:S:1:pos:R:3:forces:R:3 energy=-0.4503727316399332 pbc="F F F"
Yb       0.00000000       0.00000000       0.00000000       0.00000000       0.00000000       0.06414321
Yb       0.00000000       0.00000000       4.06000000       0.00000000       0.00000000      -0.06414321
2
Properties=species:S:1:pos:R:3:forces:R:3 energy=-0.44536817885991314 pbc="F F F"
Yb       0.00000000       0.00000000       0.00000000       0.00000000       0.00000000       0.10532903
Yb       0.00000000       0.00000000       4.11878788       0.00000000       0.00000000      -0.10532903
2
Properties=species:S:1:pos:R:3:forces:R:3 energy=-0.4380750347069523 pbc="F F F"
Yb       0.00000000       0.00000000       0.00000000       0.00000000       0.00000000       0.14204574
Yb       0.00000000       0.00000000       4.17757576       0.00000000       0.00000000      -0.14204574
2
Properties=species:S:1:pos:R:3:forces:R:3 energy=-0.42875702212745814 pbc="F F F"
Yb       0.00000000       0.00000000       0.00000000       0.00000000       0.00000000       0.17419606
Yb       0.00000000       0.00000000       4.23636364       0.00000000       0.00000000      -0.17419606
2
Properties=species:S:1:pos:R:3:forces:R:3 energy=-0.417685244708406 pbc="F F F"
Yb       0.00000000       0.00000000       0.00000000       0.00000000       0.00000000       0.20169204
Yb       0.00000000       0.00000000       4.29515152       0.00000000       0.00000000      -0.20169204
2
Properties=species:S:1:pos:R:3:forces:R:3 energy=-0.40513492484496294 pbc="F F F"
Yb       0.00000000       0.00000000       0.00000000       0.00000000       0.00000000       0.22452939
Yb       0.00000000       0.00000000       4.35393939       0.00000000       0.00000000      -0.22452939
2
Properties=species:S:1:pos:R:3:forces:R:3 energy=-0.3913744111432719 pbc="F F F"
Yb       0.00000000       0.00000000       0.00000000       0.00000000       0.00000000       0.24282603
Yb       0.00000000       0.00000000       4.41272727       0.00000000       0.00000000      -0.24282603
2
Properties=species:S:1:pos:R:3:forces:R:3 energy=-0.3766667419804569 pbc="F F F"
Yb       0.00000000       0.00000000       0.00000000       0.00000000       0.00000000       0.25682279
Yb       0.00000000       0.00000000       4.47151515       0.00000000       0.00000000      -0.25682279
2
Properties=species:S:1:pos:R:3:forces:R:3 energy=-0.36125719071771056 pbc="F F F"
Yb       0.00000000       0.00000000       0.00000000       0.00000000       0.00000000       0.26683483
Yb       0.00000000       0.00000000       4.53030303       0.00000000       0.00000000      -0.26683483
2
Properties=species:S:1:pos:R:3:forces:R:3 energy=-0.3453666913503883 pbc="F F F"
Yb       0.00000000       0.00000000       0.00000000       0.00000000       0.00000000       0.27319497
Yb       0.00000000       0.00000000       4.58909091       0.00000000       0.00000000      -0.27319497
2
Properties=species:S:1:pos:R:3:forces:R:3 energy=-0.3291995312589825 pbc="F F F"
Yb       0.00000000       0.00000000       0.00000000       0.00000000       0.00000000       0.27624977
Yb       0.00000000       0.00000000       4.64787879       0.00000000       0.00000000      -0.27624977
2
Properties=species:S:1:pos:R:3:forces:R:3 energy=-0.3129437330116164 pbc="F F F"
Yb       0.00000000       0.00000000       0.00000000       0.00000000       0.00000000       0.27638206
Yb       0.00000000       0.00000000       4.70666667       0.00000000       0.00000000      -0.27638206
2
Properties=species:S:1:pos:R:3:forces:R:3 energy=-0.29675260343469256 pbc="F F F"
Yb       0.00000000       0.00000000       0.00000000       0.00000000       0.00000000       0.27405941
Yb       0.00000000       0.00000000       4.76545455       0.00000000       0.00000000      -0.27405941
2
Properties=species:S:1:pos:R:3:forces:R:3 energy=-0.2807566418705599 pbc="F F F"
Yb       0.00000000       0.00000000       0.00000000       0.00000000       0.00000000       0.26985240
Yb       0.00000000       0.00000000       4.82424242       0.00000000       0.00000000      -0.26985240
2
Properties=species:S:1:pos:R:3:forces:R:3 energy=-0.2650511297401113 pbc="F F F"
Yb       0.00000000       0.00000000       0.00000000       0.00000000       0.00000000       0.26438183
Yb       0.00000000       0.00000000       4.88303030       0.00000000       0.00000000      -0.26438183
2
Properties=species:S:1:pos:R:3:forces:R:3 energy=-0.2496860789485961 pbc="F F F"
Yb       0.00000000       0.00000000       0.00000000       0.00000000       0.00000000       0.25821021
Yb       0.00000000       0.00000000       4.94181818       0.00000000       0.00000000      -0.25821021
2
Properties=species:S:1:pos:R:3:forces:R:3 energy=-0.23469675579938887 pbc="F F F"
Yb       0.00000000       0.00000000       0.00000000       0.00000000       0.00000000       0.25170410
Yb       0.00000000       0.00000000       5.00060606       0.00000000       0.00000000      -0.25170410
2
Properties=species:S:1:pos:R:3:forces:R:3 energy=-0.22009657912177102 pbc="F F F"
Yb       0.00000000       0.00000000       0.00000000       0.00000000       0.00000000       0.24491686
Yb       0.00000000       0.00000000       5.05939394       0.00000000       0.00000000      -0.24491686
2
Properties=species:S:1:pos:R:3:forces:R:3 energy=-0.2059117583210837 pbc="F F F"
Yb       0.00000000       0.00000000       0.00000000       0.00000000       0.00000000       0.23755968
Yb       0.00000000       0.00000000       5.11818182       0.00000000       0.00000000      -0.23755968
2
Properties=species:S:1:pos:R:3:forces:R:3 energy=-0.19219038496295487 pbc="F F F"
Yb       0.00000000       0.00000000       0.00000000       0.00000000       0.00000000       0.22904654
Yb       0.00000000       0.00000000       5.17696970       0.00000000       0.00000000      -0.22904654
2
Properties=species:S:1:pos:R:3:forces:R:3 energy=-0.17901907138868234 pbc="F F F"
Yb       0.00000000       0.00000000       0.00000000       0.00000000       0.00000000       0.21866301
Yb       0.00000000       0.00000000       5.23575758       0.00000000       0.00000000      -0.21866301
2
Properties=species:S:1:pos:R:3:forces:R:3 energy=-0.16652900387847133 pbc="F F F"
Yb       0.00000000       0.00000000       0.00000000       0.00000000       0.00000000       0.20574114
Yb       0.00000000       0.00000000       5.29454545       0.00000000       0.00000000      -0.20574114
2
Properties=species:S:1:pos:R:3:forces:R:3 energy=-0.15488453023785934 pbc="F F F"
Yb       0.00000000       0.00000000       0.00000000       0.00000000       0.00000000       0.18988258
Yb       0.00000000       0.00000000       5.35333333       0.00000000       0.00000000      -0.18988258
2
Properties=species:S:1:pos:R:3:forces:R:3 energy=-0.14426155007013367 pbc="F F F"
Yb       0.00000000       0.00000000       0.00000000       0.00000000       0.00000000       0.17110813
Yb       0.00000000       0.00000000       5.41212121       0.00000000       0.00000000      -0.17110813
2
Properties=species:S:1:pos:R:3:forces:R:3 energy=-0.1348145496559726 pbc="F F F"
Yb       0.00000000       0.00000000       0.00000000       0.00000000       0.00000000       0.14994156
Yb       0.00000000       0.00000000       5.47090909       0.00000000       0.00000000      -0.14994156
2
Properties=species:S:1:pos:R:3:forces:R:3 energy=-0.1266588639439274 pbc="F F F"
Yb       0.00000000       0.00000000       0.00000000       0.00000000       0.00000000       0.12738082
Yb       0.00000000       0.00000000       5.52969697       0.00000000       0.00000000      -0.12738082
2
Properties=species:S:1:pos:R:3:forces:R:3 energy=-0.11983919896233652 pbc="F F F"
Yb       0.00000000       0.00000000       0.00000000       0.00000000       0.00000000       0.10475431
Yb       0.00000000       0.00000000       5.58848485       0.00000000       0.00000000      -0.10475431
2
Properties=species:S:1:pos:R:3:forces:R:3 energy=-0.11431562614369767 pbc="F F F"
Yb       0.00000000       0.00000000       0.00000000       0.00000000       0.00000000       0.08355072
Yb       0.00000000       0.00000000       5.64727273       0.00000000       0.00000000      -0.08355072
2
Properties=species:S:1:pos:R:3:forces:R:3 energy=-0.10996261914688465 pbc="F F F"
Yb       0.00000000       0.00000000       0.00000000       0.00000000       0.00000000       0.06513667
Yb       0.00000000       0.00000000       5.70606061       0.00000000       0.00000000      -0.06513667
2
Properties=species:S:1:pos:R:3:forces:R:3 energy=-0.10658045993507873 pbc="F F F"
Yb       0.00000000       0.00000000       0.00000000       0.00000000       0.00000000       0.05053563
Yb       0.00000000       0.00000000       5.76484848       0.00000000       0.00000000      -0.05053563
2
Properties=species:S:1:pos:R:3:forces:R:3 energy=-0.10393282971571279 pbc="F F F"
Yb       0.00000000       0.00000000       0.00000000       0.00000000       0.00000000       0.04025836
Yb       0.00000000       0.00000000       5.82363636       0.00000000       0.00000000      -0.04025836
2
Properties=species:S:1:pos:R:3:forces:R:3 energy=-0.10176674106645153 pbc="F F F"
Yb       0.00000000       0.00000000       0.00000000       0.00000000       0.00000000       0.03412022
Yb       0.00000000       0.00000000       5.88242424       0.00000000       0.00000000      -0.03412022
2
Properties=species:S:1:pos:R:3:forces:R:3 energy=-0.09985699783250168 pbc="F F F"
Yb       0.00000000       0.00000000       0.00000000       0.00000000       0.00000000       0.03125620
Yb       0.00000000       0.00000000       5.94121212       0.00000000       0.00000000      -0.03125620
2
Properties=species:S:1:pos:R:3:forces:R:3 energy=-0.09805512245240011 pbc="F F F"
Yb       0.00000000       0.00000000       0.00000000       0.00000000       0.00000000       0.03022114
Yb       0.00000000       0.00000000       6.00000000       0.00000000       0.00000000      -0.03022114
