2
Properties=species:S:1:pos:R:3:forces:R:3 energy=1255.6074146914139 pbc="F F F"
Al       0.00000000       0.00000000       0.00000000       0.00000000       0.00000000  -17295.91406250
Al       0.00000000       0.00000000       0.18000000       0.00000000       0.00000000   17295.91406250
2
Properties=species:S:1:pos:R:3:forces:R:3 energy=608.9139942812575 pbc="F F F"
Al       0.00000000       0.00000000       0.00000000       0.00000000       0.00000000   -6696.78369141
Al       0.00000000       0.00000000       0.23878788       0.00000000       0.00000000    6696.78369141
2
Properties=species:S:1:pos:R:3:forces:R:3 energy=340.41335341211686 pbc="F F F"
Al       0.00000000       0.00000000       0.00000000       0.00000000       0.00000000   -3013.60644531
Al       0.00000000       0.00000000       0.29757576       0.00000000       0.00000000    3013.60644531
2
Properties=species:S:1:pos:R:3:forces:R:3 energy=213.90927932810848 pbc="F F F"
Al       0.00000000       0.00000000       0.00000000       0.00000000       0.00000000   -1493.80029297
Al       0.00000000       0.00000000       0.35636364       0.00000000       0.00000000    1493.80029297
2
Properties=species:S:1:pos:R:3:forces:R:3 energy=149.29332779002254 pbc="F F F"
Al       0.00000000       0.00000000       0.00000000       0.00000000       0.00000000    -789.02221680
Al       0.00000000       0.00000000       0.41515152       0.00000000       0.00000000     789.02221680
2
Properties=species:S:1:pos:R:3:forces:R:3 energy=114.1890263627284 pbc="F F F"
Al       0.00000000       0.00000000       0.00000000       0.00000000       0.00000000    -446.90924072
Al       0.00000000       0.00000000       0.47393939       0.00000000       0.00000000     446.90924072
2
Properties=species:S:1:pos:R:3:forces:R:3 energy=93.21591238707039 pbc="F F F"
Al       0.00000000       0.00000000       0.00000000       0.00000000       0.00000000    -287.27645874
Al       0.00000000       0.00000000       0.53272727       0.00000000       0.00000000     287.27645874
2
Properties=species:S:1:pos:R:3:forces:R:3 energy=78.6664434562862 pbc="F F F"
Al       0.00000000       0.00000000       0.00000000       0.00000000       0.00000000    -216.35995483
Al       0.00000000       0.00000000       0.59151515       0.00000000       0.00000000     216.35995483
2
Properties=species:S:1:pos:R:3:forces:R:3 energy=67.56381294242215 pbc="F F F"
Al       0.00000000       0.00000000       0.00000000       0.00000000       0.00000000    -159.25836182
Al       0.00000000       0.00000000       0.65030303       0.00000000       0.00000000     159.25836182
2
Properties=species:S:1:pos:R:3:forces:R:3 energy=59.82205666793991 pbc="F F F"
Al       0.00000000       0.00000000       0.00000000       0.00000000       0.00000000    -112.99361420
Al       0.00000000       0.00000000       0.70909091       0.00000000       0.00000000     112.99361420
2
Properties=species:S:1:pos:R:3:forces:R:3 energy=53.96818271482271 pbc="F F F"
Al       0.00000000       0.00000000       0.00000000       0.00000000       0.00000000     -94.79654694
Al       0.00000000       0.00000000       0.76787879       0.00000000       0.00000000      94.79654694
2
Properties=species:S:1:pos:R:3:forces:R:3 energy=48.389951270766645 pbc="F F F"
Al       0.00000000       0.00000000       0.00000000       0.00000000       0.00000000     -94.67086792
Al       0.00000000       0.00000000       0.82666667       0.00000000       0.00000000      94.67086792
2
Properties=species:S:1:pos:R:3:forces:R:3 energy=42.919340224359495 pbc="F F F"
Al       0.00000000       0.00000000       0.00000000       0.00000000       0.00000000     -90.70732880
Al       0.00000000       0.00000000       0.88545455       0.00000000       0.00000000      90.70732880
2
Properties=species:S:1:pos:R:3:forces:R:3 energy=37.80119597661621 pbc="F F F"
Al       0.00000000       0.00000000       0.00000000       0.00000000       0.00000000     -82.87339783
Al       0.00000000       0.00000000       0.94424242       0.00000000       0.00000000      82.87339783
2
Properties=species:S:1:pos:R:3:forces:R:3 energy=33.21760172711168 pbc="F F F"
Al       0.00000000       0.00000000       0.00000000       0.00000000       0.00000000     -72.96430206
Al       0.00000000       0.00000000       1.00303030       0.00000000       0.00000000      72.96430206
2
Properties=species:S:1:pos:R:3:forces:R:3 energy=29.19980562551807 pbc="F F F"
Al       0.00000000       0.00000000       0.00000000       0.00000000       0.00000000     -64.12505341
Al       0.00000000       0.00000000       1.06181818       0.00000000       0.00000000      64.12505341
2
Properties=species:S:1:pos:R:3:forces:R:3 energy=25.631835266956088 pbc="F F F"
Al       0.00000000       0.00000000       0.00000000       0.00000000       0.00000000     -57.59931564
Al       0.00000000       0.00000000       1.12060606       0.00000000       0.00000000      57.59931564
2
Properties=species:S:1:pos:R:3:forces:R:3 energy=22.376981558546138 pbc="F F F"
Al       0.00000000       0.00000000       0.00000000       0.00000000       0.00000000     -53.68968201
Al       0.00000000       0.00000000       1.17939394       0.00000000       0.00000000      53.68968201
2
Properties=species:S:1:pos:R:3:forces:R:3 energy=19.26131922088518 pbc="F F F"
Al       0.00000000       0.00000000       0.00000000       0.00000000       0.00000000     -52.55751419
Al       0.00000000       0.00000000       1.23818182       0.00000000       0.00000000      52.55751419
2
Properties=species:S:1:pos:R:3:forces:R:3 energy=16.2079746394031 pbc="F F F"
Al       0.00000000       0.00000000       0.00000000       0.00000000       0.00000000     -50.96367264
Al       0.00000000       0.00000000       1.29696970       0.00000000       0.00000000      50.96367264
2
Properties=species:S:1:pos:R:3:forces:R:3 energy=13.319510908527134 pbc="F F F"
Al       0.00000000       0.00000000       0.00000000       0.00000000       0.00000000     -46.91773987
Al       0.00000000       0.00000000       1.35575758       0.00000000       0.00000000      46.91773987
2
Properties=species:S:1:pos:R:3:forces:R:3 energy=10.72186569918657 pbc="F F F"
Al       0.00000000       0.00000000       0.00000000       0.00000000       0.00000000     -41.32769775
Al       0.00000000       0.00000000       1.41454545       0.00000000       0.00000000      41.32769775
2
Properties=species:S:1:pos:R:3:forces:R:3 energy=8.464733332422119 pbc="F F F"
Al       0.00000000       0.00000000       0.00000000       0.00000000       0.00000000     -35.48730087
Al       0.00000000       0.00000000       1.47333333       0.00000000       0.00000000      35.48730087
2
Properties=species:S:1:pos:R:3:forces:R:3 energy=6.541759767703208 pbc="F F F"
Al       0.00000000       0.00000000       0.00000000       0.00000000       0.00000000     -30.02852821
Al       0.00000000       0.00000000       1.53212121       0.00000000       0.00000000      30.02852821
2
Properties=species:S:1:pos:R:3:forces:R:3 energy=4.920835597087098 pbc="F F F"
Al       0.00000000       0.00000000       0.00000000       0.00000000       0.00000000     -25.23916245
Al       0.00000000       0.00000000       1.59090909       0.00000000       0.00000000      25.23916245
2
Properties=species:S:1:pos:R:3:forces:R:3 energy=3.559828346250777 pbc="F F F"
Al       0.00000000       0.00000000       0.00000000       0.00000000       0.00000000     -21.18123627
Al       0.00000000       0.00000000       1.64969697       0.00000000       0.00000000      21.18123627
2
Properties=species:S:1:pos:R:3:forces:R:3 energy=2.417560194204533 pbc="F F F"
Al       0.00000000       0.00000000       0.00000000       0.00000000       0.00000000     -17.77889824
Al       0.00000000       0.00000000       1.70848485       0.00000000       0.00000000      17.77889824
2
Properties=species:S:1:pos:R:3:forces:R:3 energy=1.4590075628881551 pbc="F F F"
Al       0.00000000       0.00000000       0.00000000       0.00000000       0.00000000     -14.91011238
Al       0.00000000       0.00000000       1.76727273       0.00000000       0.00000000      14.91011238
2
Properties=species:S:1:pos:R:3:forces:R:3 energy=0.6564418055200699 pbc="F F F"
Al       0.00000000       0.00000000       0.00000000       0.00000000       0.00000000     -12.45337486
Al       0.00000000       0.00000000       1.82606061       0.00000000       0.00000000      12.45337486
2
Properties=species:S:1:pos:R:3:forces:R:3 energy=-0.01141254286746704 pbc="F F F"
Al       0.00000000       0.00000000       0.00000000       0.00000000       0.00000000     -10.31474209
Al       0.00000000       0.00000000       1.88484848       0.00000000       0.00000000      10.31474209
2
Properties=species:S:1:pos:R:3:forces:R:3 energy=-0.5614425806131893 pbc="F F F"
Al       0.00000000       0.00000000       0.00000000       0.00000000       0.00000000      -8.43839169
Al       0.00000000       0.00000000       1.94363636       0.00000000       0.00000000       8.43839169
2
Properties=species:S:1:pos:R:3:forces:R:3 energy=-1.0081912999286808 pbc="F F F"
Al       0.00000000       0.00000000       0.00000000       0.00000000       0.00000000      -6.79839420
Al       0.00000000       0.00000000       2.00242424       0.00000000       0.00000000       6.79839420
2
Properties=species:S:1:pos:R:3:forces:R:3 energy=-1.3651315967506907 pbc="F F F"
Al       0.00000000       0.00000000       0.00000000       0.00000000       0.00000000      -5.38109350
Al       0.00000000       0.00000000       2.06121212       0.00000000       0.00000000       5.38109350
2
Properties=species:S:1:pos:R:3:forces:R:3 energy=-1.6449805951274081 pbc="F F F"
Al       0.00000000       0.00000000       0.00000000       0.00000000       0.00000000      -4.17305994
Al       0.00000000       0.00000000       2.12000000       0.00000000       0.00000000       4.17305994
2
Properties=species:S:1:pos:R:3:forces:R:3 energy=-1.8595660997200514 pbc="F F F"
Al       0.00000000       0.00000000       0.00000000       0.00000000       0.00000000      -3.15799665
Al       0.00000000       0.00000000       2.17878788       0.00000000       0.00000000       3.15799665
2
Properties=species:S:1:pos:R:3:forces:R:3 energy=-2.019706977952351 pbc="F F F"
Al       0.00000000       0.00000000       0.00000000       0.00000000       0.00000000      -2.31759429
Al       0.00000000       0.00000000       2.23757576       0.00000000       0.00000000       2.31759429
2
Properties=species:S:1:pos:R:3:forces:R:3 energy=-2.135094900395576 pbc="F F F"
Al       0.00000000       0.00000000       0.00000000       0.00000000       0.00000000      -1.63212132
Al       0.00000000       0.00000000       2.29636364       0.00000000       0.00000000       1.63212132
2
Properties=species:S:1:pos:R:3:forces:R:3 energy=-2.214226079363082 pbc="F F F"
Al       0.00000000       0.00000000       0.00000000       0.00000000       0.00000000      -1.08042395
Al       0.00000000       0.00000000       2.35515152       0.00000000       0.00000000       1.08042395
2
Properties=species:S:1:pos:R:3:forces:R:3 energy=-2.264313444510088 pbc="F F F"
Al       0.00000000       0.00000000       0.00000000       0.00000000       0.00000000      -0.64025551
Al       0.00000000       0.00000000       2.41393939       0.00000000       0.00000000       0.64025551
2
Properties=species:S:1:pos:R:3:forces:R:3 energy=-2.291254347451591 pbc="F F F"
Al       0.00000000       0.00000000       0.00000000       0.00000000       0.00000000      -0.28933582
Al       0.00000000       0.00000000       2.47272727       0.00000000       0.00000000       0.28933582
2
Properties=species:S:1:pos:R:3:forces:R:3 energy=-2.2996737868811072 pbc="F F F"
Al       0.00000000       0.00000000       0.00000000       0.00000000       0.00000000      -0.00700188
Al       0.00000000       0.00000000       2.53151515       0.00000000       0.00000000       0.00700188
2
Properties=species:S:1:pos:R:3:forces:R:3 energy=-2.293076694686275 pbc="F F F"
Al       0.00000000       0.00000000       0.00000000       0.00000000       0.00000000       0.22416146
Al       0.00000000       0.00000000       2.59030303       0.00000000       0.00000000      -0.22416146
2
Properties=species:S:1:pos:R:3:forces:R:3 energy=-2.274058545597617 pbc="F F F"
Al       0.00000000       0.00000000       0.00000000       0.00000000       0.00000000       0.41740739
Al       0.00000000       0.00000000       2.64909091       0.00000000       0.00000000      -0.41740739
2
Properties=species:S:1:pos:R:3:forces:R:3 energy=-2.2445694913450978 pbc="F F F"
Al       0.00000000       0.00000000       0.00000000       0.00000000       0.00000000       0.58145887
Al       0.00000000       0.00000000       2.70787879       0.00000000       0.00000000      -0.58145887
2
Properties=species:S:1:pos:R:3:forces:R:3 energy=-2.2061748665720375 pbc="F F F"
Al       0.00000000       0.00000000       0.00000000       0.00000000       0.00000000       0.72079623
Al       0.00000000       0.00000000       2.76666667       0.00000000       0.00000000      -0.72079623
2
Properties=species:S:1:pos:R:3:forces:R:3 energy=-2.160280242441405 pbc="F F F"
Al       0.00000000       0.00000000       0.00000000       0.00000000       0.00000000       0.83664614
Al       0.00000000       0.00000000       2.82545455       0.00000000       0.00000000      -0.83664614
2
Properties=species:S:1:pos:R:3:forces:R:3 energy=-2.1082702506297313 pbc="F F F"
Al       0.00000000       0.00000000       0.00000000       0.00000000       0.00000000       0.92883289
Al       0.00000000       0.00000000       2.88424242       0.00000000       0.00000000      -0.92883289
2
Properties=species:S:1:pos:R:3:forces:R:3 energy=-2.0515147634179427 pbc="F F F"
Al       0.00000000       0.00000000       0.00000000       0.00000000       0.00000000       0.99857414
Al       0.00000000       0.00000000       2.94303030       0.00000000       0.00000000      -0.99857414
2
Properties=species:S:1:pos:R:3:forces:R:3 energy=-1.9912157694879071 pbc="F F F"
Al       0.00000000       0.00000000       0.00000000       0.00000000       0.00000000       1.05030859
Al       0.00000000       0.00000000       3.00181818       0.00000000       0.00000000      -1.05030859
2
Properties=species:S:1:pos:R:3:forces:R:3 energy=-1.9282848161363886 pbc="F F F"
Al       0.00000000       0.00000000       0.00000000       0.00000000       0.00000000       1.08853412
Al       0.00000000       0.00000000       3.06060606       0.00000000       0.00000000      -1.08853412
2
Properties=species:S:1:pos:R:3:forces:R:3 energy=-1.863491116183755 pbc="F F F"
Al       0.00000000       0.00000000       0.00000000       0.00000000       0.00000000       1.11337793
Al       0.00000000       0.00000000       3.11939394       0.00000000       0.00000000      -1.11337793
2
Properties=species:S:1:pos:R:3:forces:R:3 energy=-1.7976751734441874 pbc="F F F"
Al       0.00000000       0.00000000       0.00000000       0.00000000       0.00000000       1.12317324
Al       0.00000000       0.00000000       3.17818182       0.00000000       0.00000000      -1.12317324
2
Properties=species:S:1:pos:R:3:forces:R:3 energy=-1.7317156203847637 pbc="F F F"
Al       0.00000000       0.00000000       0.00000000       0.00000000       0.00000000       1.11866176
Al       0.00000000       0.00000000       3.23696970       0.00000000       0.00000000      -1.11866176
2
Properties=species:S:1:pos:R:3:forces:R:3 energy=-1.6663692320866947 pbc="F F F"
Al       0.00000000       0.00000000       0.00000000       0.00000000       0.00000000       1.10285330
Al       0.00000000       0.00000000       3.29575758       0.00000000       0.00000000      -1.10285330
2
Properties=species:S:1:pos:R:3:forces:R:3 energy=-1.6021977616311034 pbc="F F F"
Al       0.00000000       0.00000000       0.00000000       0.00000000       0.00000000       1.07928407
Al       0.00000000       0.00000000       3.35454545       0.00000000       0.00000000      -1.07928407
2
Properties=species:S:1:pos:R:3:forces:R:3 energy=-1.539563755467813 pbc="F F F"
Al       0.00000000       0.00000000       0.00000000       0.00000000       0.00000000       1.05099928
Al       0.00000000       0.00000000       3.41333333       0.00000000       0.00000000      -1.05099928
2
Properties=species:S:1:pos:R:3:forces:R:3 energy=-1.4786737967581045 pbc="F F F"
Al       0.00000000       0.00000000       0.00000000       0.00000000       0.00000000       1.02024591
Al       0.00000000       0.00000000       3.47212121       0.00000000       0.00000000      -1.02024591
2
Properties=species:S:1:pos:R:3:forces:R:3 energy=-1.4196276191714652 pbc="F F F"
Al       0.00000000       0.00000000       0.00000000       0.00000000       0.00000000       0.98847330
Al       0.00000000       0.00000000       3.53090909       0.00000000       0.00000000      -0.98847330
2
Properties=species:S:1:pos:R:3:forces:R:3 energy=-1.3624575021890242 pbc="F F F"
Al       0.00000000       0.00000000       0.00000000       0.00000000       0.00000000       0.95646828
Al       0.00000000       0.00000000       3.58969697       0.00000000       0.00000000      -0.95646828
2
Properties=species:S:1:pos:R:3:forces:R:3 energy=-1.3071682482618265 pbc="F F F"
Al       0.00000000       0.00000000       0.00000000       0.00000000       0.00000000       0.92452461
Al       0.00000000       0.00000000       3.64848485       0.00000000       0.00000000      -0.92452461
2
Properties=species:S:1:pos:R:3:forces:R:3 energy=-1.2537554590304165 pbc="F F F"
Al       0.00000000       0.00000000       0.00000000       0.00000000       0.00000000       0.89261669
Al       0.00000000       0.00000000       3.70727273       0.00000000       0.00000000      -0.89261669
2
Properties=species:S:1:pos:R:3:forces:R:3 energy=-1.2022212227779916 pbc="F F F"
Al       0.00000000       0.00000000       0.00000000       0.00000000       0.00000000       0.86054248
Al       0.00000000       0.00000000       3.76606061       0.00000000       0.00000000      -0.86054248
2
Properties=species:S:1:pos:R:3:forces:R:3 energy=-1.1525845369958174 pbc="F F F"
Al       0.00000000       0.00000000       0.00000000       0.00000000       0.00000000       0.82804126
Al       0.00000000       0.00000000       3.82484848       0.00000000       0.00000000      -0.82804126
2
Properties=species:S:1:pos:R:3:forces:R:3 energy=-1.1048767284171372 pbc="F F F"
Al       0.00000000       0.00000000       0.00000000       0.00000000       0.00000000       0.79486459
Al       0.00000000       0.00000000       3.88363636       0.00000000       0.00000000      -0.79486459
2
Properties=species:S:1:pos:R:3:forces:R:3 energy=-1.0591445694657633 pbc="F F F"
Al       0.00000000       0.00000000       0.00000000       0.00000000       0.00000000       0.76082659
Al       0.00000000       0.00000000       3.94242424       0.00000000       0.00000000      -0.76082659
2
Properties=species:S:1:pos:R:3:forces:R:3 energy=-1.0154416321668212 pbc="F F F"
Al       0.00000000       0.00000000       0.00000000       0.00000000       0.00000000       0.72582757
Al       0.00000000       0.00000000       4.00121212       0.00000000       0.00000000      -0.72582757
2
Properties=species:S:1:pos:R:3:forces:R:3 energy=-0.9738240182031038 pbc="F F F"
Al       0.00000000       0.00000000       0.00000000       0.00000000       0.00000000       0.68987393
Al       0.00000000       0.00000000       4.06000000       0.00000000       0.00000000      -0.68987393
2
Properties=species:S:1:pos:R:3:forces:R:3 energy=-0.9343453126951512 pbc="F F F"
Al       0.00000000       0.00000000       0.00000000       0.00000000       0.00000000       0.65310025
Al       0.00000000       0.00000000       4.11878788       0.00000000       0.00000000      -0.65310025
2
Properties=species:S:1:pos:R:3:forces:R:3 energy=-0.897046315195286 pbc="F F F"
Al       0.00000000       0.00000000       0.00000000       0.00000000       0.00000000       0.61576217
Al       0.00000000       0.00000000       4.17757576       0.00000000       0.00000000      -0.61576217
2
Properties=species:S:1:pos:R:3:forces:R:3 energy=-0.8619498408282535 pbc="F F F"
Al       0.00000000       0.00000000       0.00000000       0.00000000       0.00000000       0.57823795
Al       0.00000000       0.00000000       4.23636364       0.00000000       0.00000000      -0.57823795
2
Properties=species:S:1:pos:R:3:forces:R:3 energy=-0.8290529615999586 pbc="F F F"
Al       0.00000000       0.00000000       0.00000000       0.00000000       0.00000000       0.54100704
Al       0.00000000       0.00000000       4.29515152       0.00000000       0.00000000      -0.54100704
2
Properties=species:S:1:pos:R:3:forces:R:3 energy=-0.7983245245931636 pbc="F F F"
Al       0.00000000       0.00000000       0.00000000       0.00000000       0.00000000       0.50460964
Al       0.00000000       0.00000000       4.35393939       0.00000000       0.00000000      -0.50460964
2
Properties=species:S:1:pos:R:3:forces:R:3 energy=-0.7696970707423425 pbc="F F F"
Al       0.00000000       0.00000000       0.00000000       0.00000000       0.00000000       0.46958676
Al       0.00000000       0.00000000       4.41272727       0.00000000       0.00000000      -0.46958676
2
Properties=species:S:1:pos:R:3:forces:R:3 energy=-0.7430760424593755 pbc="F F F"
Al       0.00000000       0.00000000       0.00000000       0.00000000       0.00000000       0.43640700
Al       0.00000000       0.00000000       4.47151515       0.00000000       0.00000000      -0.43640700
2
Properties=species:S:1:pos:R:3:forces:R:3 energy=-0.7183428343897929 pbc="F F F"
Al       0.00000000       0.00000000       0.00000000       0.00000000       0.00000000       0.40539649
Al       0.00000000       0.00000000       4.53030303       0.00000000       0.00000000      -0.40539649
2
Properties=species:S:1:pos:R:3:forces:R:3 energy=-0.695366857141669 pbc="F F F"
Al       0.00000000       0.00000000       0.00000000       0.00000000       0.00000000       0.37665838
Al       0.00000000       0.00000000       4.58909091       0.00000000       0.00000000      -0.37665838
2
Properties=species:S:1:pos:R:3:forces:R:3 energy=-0.6740156219739257 pbc="F F F"
Al       0.00000000       0.00000000       0.00000000       0.00000000       0.00000000       0.35005710
Al       0.00000000       0.00000000       4.64787879       0.00000000       0.00000000      -0.35005710
2
Properties=species:S:1:pos:R:3:forces:R:3 energy=-0.6541736728986157 pbc="F F F"
Al       0.00000000       0.00000000       0.00000000       0.00000000       0.00000000       0.32521290
Al       0.00000000       0.00000000       4.70666667       0.00000000       0.00000000      -0.32521290
2
Properties=species:S:1:pos:R:3:forces:R:3 energy=-0.6357532699995203 pbc="F F F"
Al       0.00000000       0.00000000       0.00000000       0.00000000       0.00000000       0.30163303
Al       0.00000000       0.00000000       4.76545455       0.00000000       0.00000000      -0.30163303
2
Properties=species:S:1:pos:R:3:forces:R:3 energy=-0.6186935898131661 pbc="F F F"
Al       0.00000000       0.00000000       0.00000000       0.00000000       0.00000000       0.27883822
Al       0.00000000       0.00000000       4.82424242       0.00000000       0.00000000      -0.27883822
2
Properties=species:S:1:pos:R:3:forces:R:3 energy=-0.6029585257086364 pbc="F F F"
Al       0.00000000       0.00000000       0.00000000       0.00000000       0.00000000       0.25661466
Al       0.00000000       0.00000000       4.88303030       0.00000000       0.00000000      -0.25661466
2
Properties=species:S:1:pos:R:3:forces:R:3 energy=-0.5885069604249631 pbc="F F F"
Al       0.00000000       0.00000000       0.00000000       0.00000000       0.00000000       0.23518799
Al       0.00000000       0.00000000       4.94181818       0.00000000       0.00000000      -0.23518799
2
Properties=species:S:1:pos:R:3:forces:R:3 energy=-0.5752745666476022 pbc="F F F"
Al       0.00000000       0.00000000       0.00000000       0.00000000       0.00000000       0.21532145
Al       0.00000000       0.00000000       5.00060606       0.00000000       0.00000000      -0.21532145
2
Properties=species:S:1:pos:R:3:forces:R:3 energy=-0.5631364154732681 pbc="F F F"
Al       0.00000000       0.00000000       0.00000000       0.00000000       0.00000000       0.19818541
Al       0.00000000       0.00000000       5.05939394       0.00000000       0.00000000      -0.19818541
2
Properties=species:S:1:pos:R:3:forces:R:3 energy=-0.5518956176813168 pbc="F F F"
Al       0.00000000       0.00000000       0.00000000       0.00000000       0.00000000       0.18496233
Al       0.00000000       0.00000000       5.11818182       0.00000000       0.00000000      -0.18496233
2
Properties=species:S:1:pos:R:3:forces:R:3 energy=-0.54130116569742 pbc="F F F"
Al       0.00000000       0.00000000       0.00000000       0.00000000       0.00000000       0.17622441
Al       0.00000000       0.00000000       5.17696970       0.00000000       0.00000000      -0.17622441
2
Properties=species:S:1:pos:R:3:forces:R:3 energy=-0.5311040437390526 pbc="F F F"
Al       0.00000000       0.00000000       0.00000000       0.00000000       0.00000000       0.17114384
Al       0.00000000       0.00000000       5.23575758       0.00000000       0.00000000      -0.17114384
2
Properties=species:S:1:pos:R:3:forces:R:3 energy=-0.5211613719690917 pbc="F F F"
Al       0.00000000       0.00000000       0.00000000       0.00000000       0.00000000       0.16693349
Al       0.00000000       0.00000000       5.29454545       0.00000000       0.00000000      -0.16693349
2
Properties=species:S:1:pos:R:3:forces:R:3 energy=-0.5115392453908858 pbc="F F F"
Al       0.00000000       0.00000000       0.00000000       0.00000000       0.00000000       0.15960120
Al       0.00000000       0.00000000       5.35333333       0.00000000       0.00000000      -0.15960120
2
Properties=species:S:1:pos:R:3:forces:R:3 energy=-0.502475583315514 pbc="F F F"
Al       0.00000000       0.00000000       0.00000000       0.00000000       0.00000000       0.14853603
Al       0.00000000       0.00000000       5.41212121       0.00000000       0.00000000      -0.14853603
2
Properties=species:S:1:pos:R:3:forces:R:3 energy=-0.49398922713820254 pbc="F F F"
Al       0.00000000       0.00000000       0.00000000       0.00000000       0.00000000       0.14178079
Al       0.00000000       0.00000000       5.47090909       0.00000000       0.00000000      -0.14178079
2
Properties=species:S:1:pos:R:3:forces:R:3 energy=-0.4856402281720477 pbc="F F F"
Al       0.00000000       0.00000000       0.00000000       0.00000000       0.00000000       0.14246981
Al       0.00000000       0.00000000       5.52969697       0.00000000       0.00000000      -0.14246981
2
Properties=species:S:1:pos:R:3:forces:R:3 energy=-0.47740879516289586 pbc="F F F"
Al       0.00000000       0.00000000       0.00000000       0.00000000       0.00000000       0.13512565
Al       0.00000000       0.00000000       5.58848485       0.00000000       0.00000000      -0.13512565
2
Properties=species:S:1:pos:R:3:forces:R:3 energy=-0.46998404540717625 pbc="F F F"
Al       0.00000000       0.00000000       0.00000000       0.00000000       0.00000000       0.11671193
Al       0.00000000       0.00000000       5.64727273       0.00000000       0.00000000      -0.11671193
2
Properties=species:S:1:pos:R:3:forces:R:3 energy=-0.4635754720039813 pbc="F F F"
Al       0.00000000       0.00000000       0.00000000       0.00000000       0.00000000       0.10405660
Al       0.00000000       0.00000000       5.70606061       0.00000000       0.00000000      -0.10405660
2
Properties=species:S:1:pos:R:3:forces:R:3 energy=-0.45736107532848935 pbc="F F F"
Al       0.00000000       0.00000000       0.00000000       0.00000000       0.00000000       0.10905092
Al       0.00000000       0.00000000       5.76484848       0.00000000       0.00000000      -0.10905092
2
Properties=species:S:1:pos:R:3:forces:R:3 energy=-0.45092541903789135 pbc="F F F"
Al       0.00000000       0.00000000       0.00000000       0.00000000       0.00000000       0.10526899
Al       0.00000000       0.00000000       5.82363636       0.00000000       0.00000000      -0.10526899
2
Properties=species:S:1:pos:R:3:forces:R:3 energy=-0.4456762657510808 pbc="F F F"
Al       0.00000000       0.00000000       0.00000000       0.00000000       0.00000000       0.06938396
Al       0.00000000       0.00000000       5.88242424       0.00000000       0.00000000      -0.06938396
2
Properties=species:S:1:pos:R:3:forces:R:3 energy=-0.4428929121544707 pbc="F F F"
Al       0.00000000       0.00000000       0.00000000       0.00000000       0.00000000       0.02697686
Al       0.00000000       0.00000000       5.94121212       0.00000000       0.00000000      -0.02697686
2
Properties=species:S:1:pos:R:3:forces:R:3 energy=-0.44199816281888715 pbc="F F F"
Al       0.00000000       0.00000000       0.00000000       0.00000000       0.00000000       0.00916749
Al       0.00000000       0.00000000       6.00000000       0.00000000       0.00000000      -0.00916749
