2
Properties=species:S:1:pos:R:3:forces:R:3 energy=10979.110929994942 pbc="F F F"
Bi       0.00000000       0.00000000       0.00000000       0.00000000       0.00000000 -305173.90625000
Bi       0.00000000       0.00000000       0.18000000       0.00000000       0.00000000  305173.90625000
2
Properties=species:S:1:pos:R:3:forces:R:3 energy=514.5529465965038 pbc="F F F"
Bi       0.00000000       0.00000000       0.00000000       0.00000000       0.00000000  -94675.67187500
Bi       0.00000000       0.00000000       0.23878788       0.00000000       0.00000000   94675.67187500
2
Properties=species:S:1:pos:R:3:forces:R:3 energy=-2752.614655939391 pbc="F F F"
Bi       0.00000000       0.00000000       0.00000000       0.00000000       0.00000000  -27123.26953125
Bi       0.00000000       0.00000000       0.29757576       0.00000000       0.00000000   27123.26953125
2
Properties=species:S:1:pos:R:3:forces:R:3 energy=-3381.995027033141 pbc="F F F"
Bi       0.00000000       0.00000000       0.00000000       0.00000000       0.00000000    2326.26684570
Bi       0.00000000       0.00000000       0.35636364       0.00000000       0.00000000   -2326.26684570
2
Properties=species:S:1:pos:R:3:forces:R:3 energy=-2752.71353288618 pbc="F F F"
Bi       0.00000000       0.00000000       0.00000000       0.00000000       0.00000000   17263.11718750
Bi       0.00000000       0.00000000       0.41515152       0.00000000       0.00000000  -17263.11718750
2
Properties=species:S:1:pos:R:3:forces:R:3 energy=-1557.0670485048445 pbc="F F F"
Bi       0.00000000       0.00000000       0.00000000       0.00000000       0.00000000   21664.50195312
Bi       0.00000000       0.00000000       0.47393939       0.00000000       0.00000000  -21664.50195312
2
Properties=species:S:1:pos:R:3:forces:R:3 energy=-446.4678968745095 pbc="F F F"
Bi       0.00000000       0.00000000       0.00000000       0.00000000       0.00000000   12867.52343750
Bi       0.00000000       0.00000000       0.53272727       0.00000000       0.00000000  -12867.52343750
2
Properties=species:S:1:pos:R:3:forces:R:3 energy=120.18664416645805 pbc="F F F"
Bi       0.00000000       0.00000000       0.00000000       0.00000000       0.00000000    6148.50878906
Bi       0.00000000       0.00000000       0.59151515       0.00000000       0.00000000   -6148.50878906
2
Properties=species:S:1:pos:R:3:forces:R:3 energy=326.54135002135445 pbc="F F F"
Bi       0.00000000       0.00000000       0.00000000       0.00000000       0.00000000     862.58453369
Bi       0.00000000       0.00000000       0.65030303       0.00000000       0.00000000    -862.58453369
2
Properties=species:S:1:pos:R:3:forces:R:3 energy=280.4840686064094 pbc="F F F"
Bi       0.00000000       0.00000000       0.00000000       0.00000000       0.00000000   -1339.15954590
Bi       0.00000000       0.00000000       0.70909091       0.00000000       0.00000000    1339.15954590
2
Properties=species:S:1:pos:R:3:forces:R:3 energy=228.6823261635722 pbc="F F F"
Bi       0.00000000       0.00000000       0.00000000       0.00000000       0.00000000    -503.77902222
Bi       0.00000000       0.00000000       0.76787879       0.00000000       0.00000000     503.77902222
2
Properties=species:S:1:pos:R:3:forces:R:3 energy=207.75715542986146 pbc="F F F"
Bi       0.00000000       0.00000000       0.00000000       0.00000000       0.00000000    -293.43994141
Bi       0.00000000       0.00000000       0.82666667       0.00000000       0.00000000     293.43994141
2
Properties=species:S:1:pos:R:3:forces:R:3 energy=187.23225332369813 pbc="F F F"
Bi       0.00000000       0.00000000       0.00000000       0.00000000       0.00000000    -380.41140747
Bi       0.00000000       0.00000000       0.88545455       0.00000000       0.00000000     380.41140747
2
Properties=species:S:1:pos:R:3:forces:R:3 energy=166.8078457005029 pbc="F F F"
Bi       0.00000000       0.00000000       0.00000000       0.00000000       0.00000000    -317.27847290
Bi       0.00000000       0.00000000       0.94424242       0.00000000       0.00000000     317.27847290
2
Properties=species:S:1:pos:R:3:forces:R:3 energy=149.29643258561836 pbc="F F F"
Bi       0.00000000       0.00000000       0.00000000       0.00000000       0.00000000    -283.06909180
Bi       0.00000000       0.00000000       1.00303030       0.00000000       0.00000000     283.06909180
2
Properties=species:S:1:pos:R:3:forces:R:3 energy=133.37153696627712 pbc="F F F"
Bi       0.00000000       0.00000000       0.00000000       0.00000000       0.00000000    -259.01379395
Bi       0.00000000       0.00000000       1.06181818       0.00000000       0.00000000     259.01379395
2
Properties=species:S:1:pos:R:3:forces:R:3 energy=118.58728943786011 pbc="F F F"
Bi       0.00000000       0.00000000       0.00000000       0.00000000       0.00000000    -247.57342529
Bi       0.00000000       0.00000000       1.12060606       0.00000000       0.00000000     247.57342529
2
Properties=species:S:1:pos:R:3:forces:R:3 energy=104.00689195851714 pbc="F F F"
Bi       0.00000000       0.00000000       0.00000000       0.00000000       0.00000000    -248.43299866
Bi       0.00000000       0.00000000       1.17939394       0.00000000       0.00000000     248.43299866
2
Properties=species:S:1:pos:R:3:forces:R:3 energy=89.51802464214781 pbc="F F F"
Bi       0.00000000       0.00000000       0.00000000       0.00000000       0.00000000    -242.83874512
Bi       0.00000000       0.00000000       1.23818182       0.00000000       0.00000000     242.83874512
2
Properties=species:S:1:pos:R:3:forces:R:3 energy=75.6594143650848 pbc="F F F"
Bi       0.00000000       0.00000000       0.00000000       0.00000000       0.00000000    -226.75195312
Bi       0.00000000       0.00000000       1.29696970       0.00000000       0.00000000     226.75195312
2
Properties=species:S:1:pos:R:3:forces:R:3 energy=63.104481168419724 pbc="F F F"
Bi       0.00000000       0.00000000       0.00000000       0.00000000       0.00000000    -198.28662109
Bi       0.00000000       0.00000000       1.35575758       0.00000000       0.00000000     198.28662109
2
Properties=species:S:1:pos:R:3:forces:R:3 energy=52.503940018287 pbc="F F F"
Bi       0.00000000       0.00000000       0.00000000       0.00000000       0.00000000    -162.17604065
Bi       0.00000000       0.00000000       1.41454545       0.00000000       0.00000000     162.17604065
2
Properties=species:S:1:pos:R:3:forces:R:3 energy=43.91298970766529 pbc="F F F"
Bi       0.00000000       0.00000000       0.00000000       0.00000000       0.00000000    -132.04364014
Bi       0.00000000       0.00000000       1.47333333       0.00000000       0.00000000     132.04364014
2
Properties=species:S:1:pos:R:3:forces:R:3 energy=36.724330549076505 pbc="F F F"
Bi       0.00000000       0.00000000       0.00000000       0.00000000       0.00000000    -114.41088867
Bi       0.00000000       0.00000000       1.53212121       0.00000000       0.00000000     114.41088867
2
Properties=species:S:1:pos:R:3:forces:R:3 energy=30.331017672573427 pbc="F F F"
Bi       0.00000000       0.00000000       0.00000000       0.00000000       0.00000000    -103.40145111
Bi       0.00000000       0.00000000       1.59090909       0.00000000       0.00000000     103.40145111
2
Properties=species:S:1:pos:R:3:forces:R:3 energy=24.57216828988588 pbc="F F F"
Bi       0.00000000       0.00000000       0.00000000       0.00000000       0.00000000     -92.45624542
Bi       0.00000000       0.00000000       1.64969697       0.00000000       0.00000000      92.45624542
2
Properties=species:S:1:pos:R:3:forces:R:3 energy=19.450992658832224 pbc="F F F"
Bi       0.00000000       0.00000000       0.00000000       0.00000000       0.00000000     -81.91371918
Bi       0.00000000       0.00000000       1.70848485       0.00000000       0.00000000      81.91371918
2
Properties=species:S:1:pos:R:3:forces:R:3 energy=14.930990079877336 pbc="F F F"
Bi       0.00000000       0.00000000       0.00000000       0.00000000       0.00000000     -71.86783600
Bi       0.00000000       0.00000000       1.76727273       0.00000000       0.00000000      71.86783600
2
Properties=species:S:1:pos:R:3:forces:R:3 energy=11.004221451923799 pbc="F F F"
Bi       0.00000000       0.00000000       0.00000000       0.00000000       0.00000000     -61.70109177
Bi       0.00000000       0.00000000       1.82606061       0.00000000       0.00000000      61.70109177
2
Properties=species:S:1:pos:R:3:forces:R:3 energy=7.673828460106024 pbc="F F F"
Bi       0.00000000       0.00000000       0.00000000       0.00000000       0.00000000     -51.67593002
Bi       0.00000000       0.00000000       1.88484848       0.00000000       0.00000000      51.67593002
2
Properties=species:S:1:pos:R:3:forces:R:3 energy=4.913789476480053 pbc="F F F"
Bi       0.00000000       0.00000000       0.00000000       0.00000000       0.00000000     -42.38830948
Bi       0.00000000       0.00000000       1.94363636       0.00000000       0.00000000      42.38830948
2
Properties=species:S:1:pos:R:3:forces:R:3 energy=2.667394352023537 pbc="F F F"
Bi       0.00000000       0.00000000       0.00000000       0.00000000       0.00000000     -34.24270630
Bi       0.00000000       0.00000000       2.00242424       0.00000000       0.00000000      34.24270630
2
Properties=species:S:1:pos:R:3:forces:R:3 energy=0.8631386387288673 pbc="F F F"
Bi       0.00000000       0.00000000       0.00000000       0.00000000       0.00000000     -27.34297752
Bi       0.00000000       0.00000000       2.06121212       0.00000000       0.00000000      27.34297752
2
Properties=species:S:1:pos:R:3:forces:R:3 energy=-0.5702407652852465 pbc="F F F"
Bi       0.00000000       0.00000000       0.00000000       0.00000000       0.00000000     -21.60373878
Bi       0.00000000       0.00000000       2.12000000       0.00000000       0.00000000      21.60373878
2
Properties=species:S:1:pos:R:3:forces:R:3 energy=-1.6969018561599343 pbc="F F F"
Bi       0.00000000       0.00000000       0.00000000       0.00000000       0.00000000     -16.88344193
Bi       0.00000000       0.00000000       2.17878788       0.00000000       0.00000000      16.88344193
2
Properties=species:S:1:pos:R:3:forces:R:3 energy=-2.572478120292286 pbc="F F F"
Bi       0.00000000       0.00000000       0.00000000       0.00000000       0.00000000     -13.03857708
Bi       0.00000000       0.00000000       2.23757576       0.00000000       0.00000000      13.03857708
2
Properties=species:S:1:pos:R:3:forces:R:3 energy=-3.2443973411573 pbc="F F F"
Bi       0.00000000       0.00000000       0.00000000       0.00000000       0.00000000      -9.93302917
Bi       0.00000000       0.00000000       2.29636364       0.00000000       0.00000000       9.93302917
2
Properties=species:S:1:pos:R:3:forces:R:3 energy=-3.7523896978103446 pbc="F F F"
Bi       0.00000000       0.00000000       0.00000000       0.00000000       0.00000000      -7.44175911
Bi       0.00000000       0.00000000       2.35515152       0.00000000       0.00000000       7.44175911
2
Properties=species:S:1:pos:R:3:forces:R:3 energy=-4.129205602047148 pbc="F F F"
Bi       0.00000000       0.00000000       0.00000000       0.00000000       0.00000000      -5.45278549
Bi       0.00000000       0.00000000       2.41393939       0.00000000       0.00000000       5.45278549
2
Properties=species:S:1:pos:R:3:forces:R:3 energy=-4.40140535340907 pbc="F F F"
Bi       0.00000000       0.00000000       0.00000000       0.00000000       0.00000000      -3.86743522
Bi       0.00000000       0.00000000       2.47272727       0.00000000       0.00000000       3.86743522
2
Properties=species:S:1:pos:R:3:forces:R:3 energy=-4.590157355082468 pbc="F F F"
Bi       0.00000000       0.00000000       0.00000000       0.00000000       0.00000000      -2.60090303
Bi       0.00000000       0.00000000       2.53151515       0.00000000       0.00000000       2.60090303
2
Properties=species:S:1:pos:R:3:forces:R:3 energy=-4.712089064653553 pbc="F F F"
Bi       0.00000000       0.00000000       0.00000000       0.00000000       0.00000000      -1.58393335
Bi       0.00000000       0.00000000       2.59030303       0.00000000       0.00000000       1.58393335
2
Properties=species:S:1:pos:R:3:forces:R:3 energy=-4.780226331631831 pbc="F F F"
Bi       0.00000000       0.00000000       0.00000000       0.00000000       0.00000000      -0.76325387
Bi       0.00000000       0.00000000       2.64909091       0.00000000       0.00000000       0.76325387
2
Properties=species:S:1:pos:R:3:forces:R:3 energy=-4.804902744917726 pbc="F F F"
Bi       0.00000000       0.00000000       0.00000000       0.00000000       0.00000000      -0.09981956
Bi       0.00000000       0.00000000       2.70787879       0.00000000       0.00000000       0.09981956
2
Properties=species:S:1:pos:R:3:forces:R:3 energy=-4.794490652676505 pbc="F F F"
Bi       0.00000000       0.00000000       0.00000000       0.00000000       0.00000000       0.43435186
Bi       0.00000000       0.00000000       2.76666667       0.00000000       0.00000000      -0.43435186
2
Properties=species:S:1:pos:R:3:forces:R:3 energy=-4.755967164877247 pbc="F F F"
Bi       0.00000000       0.00000000       0.00000000       0.00000000       0.00000000       0.85944462
Bi       0.00000000       0.00000000       2.82545455       0.00000000       0.00000000      -0.85944462
2
Properties=species:S:1:pos:R:3:forces:R:3 energy=-4.695283203078531 pbc="F F F"
Bi       0.00000000       0.00000000       0.00000000       0.00000000       0.00000000       1.19043303
Bi       0.00000000       0.00000000       2.88424242       0.00000000       0.00000000      -1.19043303
2
Properties=species:S:1:pos:R:3:forces:R:3 energy=-4.617612498124044 pbc="F F F"
Bi       0.00000000       0.00000000       0.00000000       0.00000000       0.00000000       1.43915153
Bi       0.00000000       0.00000000       2.94303030       0.00000000       0.00000000      -1.43915153
2
Properties=species:S:1:pos:R:3:forces:R:3 energy=-4.527481700162501 pbc="F F F"
Bi       0.00000000       0.00000000       0.00000000       0.00000000       0.00000000       1.61605334
Bi       0.00000000       0.00000000       3.00181818       0.00000000       0.00000000      -1.61605334
2
Properties=species:S:1:pos:R:3:forces:R:3 energy=-4.428809542651064 pbc="F F F"
Bi       0.00000000       0.00000000       0.00000000       0.00000000       0.00000000       1.73146784
Bi       0.00000000       0.00000000       3.06060606       0.00000000       0.00000000      -1.73146784
2
Properties=species:S:1:pos:R:3:forces:R:3 energy=-4.324899864028184 pbc="F F F"
Bi       0.00000000       0.00000000       0.00000000       0.00000000       0.00000000       1.79604113
Bi       0.00000000       0.00000000       3.11939394       0.00000000       0.00000000      -1.79604113
2
Properties=species:S:1:pos:R:3:forces:R:3 energy=-4.218427820617704 pbc="F F F"
Bi       0.00000000       0.00000000       0.00000000       0.00000000       0.00000000       1.82029033
Bi       0.00000000       0.00000000       3.17818182       0.00000000       0.00000000      -1.82029033
2
Properties=species:S:1:pos:R:3:forces:R:3 energy=-4.111481013337866 pbc="F F F"
Bi       0.00000000       0.00000000       0.00000000       0.00000000       0.00000000       1.81370914
Bi       0.00000000       0.00000000       3.23696970       0.00000000       0.00000000      -1.81370914
2
Properties=species:S:1:pos:R:3:forces:R:3 energy=-4.00563075018596 pbc="F F F"
Bi       0.00000000       0.00000000       0.00000000       0.00000000       0.00000000       1.78408802
Bi       0.00000000       0.00000000       3.29575758       0.00000000       0.00000000      -1.78408802
2
Properties=species:S:1:pos:R:3:forces:R:3 energy=-3.9020493543550274 pbc="F F F"
Bi       0.00000000       0.00000000       0.00000000       0.00000000       0.00000000       1.73735535
Bi       0.00000000       0.00000000       3.35454545       0.00000000       0.00000000      -1.73735535
2
Properties=species:S:1:pos:R:3:forces:R:3 energy=-3.8016080178936784 pbc="F F F"
Bi       0.00000000       0.00000000       0.00000000       0.00000000       0.00000000       1.67791438
Bi       0.00000000       0.00000000       3.41333333       0.00000000       0.00000000      -1.67791438
2
Properties=species:S:1:pos:R:3:forces:R:3 energy=-3.7049502229489293 pbc="F F F"
Bi       0.00000000       0.00000000       0.00000000       0.00000000       0.00000000       1.60908568
Bi       0.00000000       0.00000000       3.47212121       0.00000000       0.00000000      -1.60908568
2
Properties=species:S:1:pos:R:3:forces:R:3 energy=-3.6125509433928285 pbc="F F F"
Bi       0.00000000       0.00000000       0.00000000       0.00000000       0.00000000       1.53350496
Bi       0.00000000       0.00000000       3.53090909       0.00000000       0.00000000      -1.53350496
2
Properties=species:S:1:pos:R:3:forces:R:3 energy=-3.524737680436827 pbc="F F F"
Bi       0.00000000       0.00000000       0.00000000       0.00000000       0.00000000       1.45328677
Bi       0.00000000       0.00000000       3.58969697       0.00000000       0.00000000      -1.45328677
2
Properties=species:S:1:pos:R:3:forces:R:3 energy=-3.4417389552611937 pbc="F F F"
Bi       0.00000000       0.00000000       0.00000000       0.00000000       0.00000000       1.36994374
Bi       0.00000000       0.00000000       3.64848485       0.00000000       0.00000000      -1.36994374
2
Properties=species:S:1:pos:R:3:forces:R:3 energy=-3.3637120675180556 pbc="F F F"
Bi       0.00000000       0.00000000       0.00000000       0.00000000       0.00000000       1.28427231
Bi       0.00000000       0.00000000       3.70727273       0.00000000       0.00000000      -1.28427231
2
Properties=species:S:1:pos:R:3:forces:R:3 energy=-3.290777625486574 pbc="F F F"
Bi       0.00000000       0.00000000       0.00000000       0.00000000       0.00000000       1.19666123
Bi       0.00000000       0.00000000       3.76606061       0.00000000       0.00000000      -1.19666123
2
Properties=species:S:1:pos:R:3:forces:R:3 energy=-3.223041614687854 pbc="F F F"
Bi       0.00000000       0.00000000       0.00000000       0.00000000       0.00000000       1.10763657
Bi       0.00000000       0.00000000       3.82484848       0.00000000       0.00000000      -1.10763657
2
Properties=species:S:1:pos:R:3:forces:R:3 energy=-3.1605570136126624 pbc="F F F"
Bi       0.00000000       0.00000000       0.00000000       0.00000000       0.00000000       1.01808369
Bi       0.00000000       0.00000000       3.88363636       0.00000000       0.00000000      -1.01808369
2
Properties=species:S:1:pos:R:3:forces:R:3 energy=-3.1033256463198247 pbc="F F F"
Bi       0.00000000       0.00000000       0.00000000       0.00000000       0.00000000       0.92918611
Bi       0.00000000       0.00000000       3.94242424       0.00000000       0.00000000      -0.92918611
2
Properties=species:S:1:pos:R:3:forces:R:3 energy=-3.051270907650878 pbc="F F F"
Bi       0.00000000       0.00000000       0.00000000       0.00000000       0.00000000       0.84220409
Bi       0.00000000       0.00000000       4.00121212       0.00000000       0.00000000      -0.84220409
2
Properties=species:S:1:pos:R:3:forces:R:3 energy=-3.004243139311284 pbc="F F F"
Bi       0.00000000       0.00000000       0.00000000       0.00000000       0.00000000       0.75829661
Bi       0.00000000       0.00000000       4.06000000       0.00000000       0.00000000      -0.75829661
2
Properties=species:S:1:pos:R:3:forces:R:3 energy=-2.962034064033968 pbc="F F F"
Bi       0.00000000       0.00000000       0.00000000       0.00000000       0.00000000       0.67842877
Bi       0.00000000       0.00000000       4.11878788       0.00000000       0.00000000      -0.67842877
2
Properties=species:S:1:pos:R:3:forces:R:3 energy=-2.924383023148307 pbc="F F F"
Bi       0.00000000       0.00000000       0.00000000       0.00000000       0.00000000       0.60331780
Bi       0.00000000       0.00000000       4.17757576       0.00000000       0.00000000      -0.60331780
2
Properties=species:S:1:pos:R:3:forces:R:3 energy=-2.8909948974914155 pbc="F F F"
Bi       0.00000000       0.00000000       0.00000000       0.00000000       0.00000000       0.53346074
Bi       0.00000000       0.00000000       4.23636364       0.00000000       0.00000000      -0.53346074
2
Properties=species:S:1:pos:R:3:forces:R:3 energy=-2.861551476976197 pbc="F F F"
Bi       0.00000000       0.00000000       0.00000000       0.00000000       0.00000000       0.46914995
Bi       0.00000000       0.00000000       4.29515152       0.00000000       0.00000000      -0.46914995
2
Properties=species:S:1:pos:R:3:forces:R:3 energy=-2.8357231232628695 pbc="F F F"
Bi       0.00000000       0.00000000       0.00000000       0.00000000       0.00000000       0.41052678
Bi       0.00000000       0.00000000       4.35393939       0.00000000       0.00000000      -0.41052678
2
Properties=species:S:1:pos:R:3:forces:R:3 energy=-2.813172444240137 pbc="F F F"
Bi       0.00000000       0.00000000       0.00000000       0.00000000       0.00000000       0.35759705
Bi       0.00000000       0.00000000       4.41272727       0.00000000       0.00000000      -0.35759705
2
Properties=species:S:1:pos:R:3:forces:R:3 energy=-2.7935682616869526 pbc="F F F"
Bi       0.00000000       0.00000000       0.00000000       0.00000000       0.00000000       0.31026742
Bi       0.00000000       0.00000000       4.47151515       0.00000000       0.00000000      -0.31026742
2
Properties=species:S:1:pos:R:3:forces:R:3 energy=-2.7765860754383898 pbc="F F F"
Bi       0.00000000       0.00000000       0.00000000       0.00000000       0.00000000       0.26835853
Bi       0.00000000       0.00000000       4.53030303       0.00000000       0.00000000      -0.26835853
2
Properties=species:S:1:pos:R:3:forces:R:3 energy=-2.761914917335813 pbc="F F F"
Bi       0.00000000       0.00000000       0.00000000       0.00000000       0.00000000       0.23160179
Bi       0.00000000       0.00000000       4.58909091       0.00000000       0.00000000      -0.23160179
2
Properties=species:S:1:pos:R:3:forces:R:3 energy=-2.749261483538278 pbc="F F F"
Bi       0.00000000       0.00000000       0.00000000       0.00000000       0.00000000       0.19964987
Bi       0.00000000       0.00000000       4.64787879       0.00000000       0.00000000      -0.19964987
2
Properties=species:S:1:pos:R:3:forces:R:3 energy=-2.7383547761812266 pbc="F F F"
Bi       0.00000000       0.00000000       0.00000000       0.00000000       0.00000000       0.17207929
Bi       0.00000000       0.00000000       4.70666667       0.00000000       0.00000000      -0.17207929
2
Properties=species:S:1:pos:R:3:forces:R:3 energy=-2.7289520131558103 pbc="F F F"
Bi       0.00000000       0.00000000       0.00000000       0.00000000       0.00000000       0.14841920
Bi       0.00000000       0.00000000       4.76545455       0.00000000       0.00000000      -0.14841920
2
Properties=species:S:1:pos:R:3:forces:R:3 energy=-2.7208371785904832 pbc="F F F"
Bi       0.00000000       0.00000000       0.00000000       0.00000000       0.00000000       0.12817714
Bi       0.00000000       0.00000000       4.82424242       0.00000000       0.00000000      -0.12817714
2
Properties=species:S:1:pos:R:3:forces:R:3 energy=-2.713823563091997 pbc="F F F"
Bi       0.00000000       0.00000000       0.00000000       0.00000000       0.00000000       0.11091328
Bi       0.00000000       0.00000000       4.88303030       0.00000000       0.00000000      -0.11091328
2
Properties=species:S:1:pos:R:3:forces:R:3 energy=-2.707744825048552 pbc="F F F"
Bi       0.00000000       0.00000000       0.00000000       0.00000000       0.00000000       0.09630139
Bi       0.00000000       0.00000000       4.94181818       0.00000000       0.00000000      -0.09630139
2
Properties=species:S:1:pos:R:3:forces:R:3 energy=-2.702451188603823 pbc="F F F"
Bi       0.00000000       0.00000000       0.00000000       0.00000000       0.00000000       0.08420578
Bi       0.00000000       0.00000000       5.00060606       0.00000000       0.00000000      -0.08420578
2
Properties=species:S:1:pos:R:3:forces:R:3 energy=-2.697793649426028 pbc="F F F"
Bi       0.00000000       0.00000000       0.00000000       0.00000000       0.00000000       0.07468594
Bi       0.00000000       0.00000000       5.05939394       0.00000000       0.00000000      -0.07468594
2
Properties=species:S:1:pos:R:3:forces:R:3 energy=-2.693616480777754 pbc="F F F"
Bi       0.00000000       0.00000000       0.00000000       0.00000000       0.00000000       0.06788794
Bi       0.00000000       0.00000000       5.11818182       0.00000000       0.00000000      -0.06788794
2
Properties=species:S:1:pos:R:3:forces:R:3 energy=-2.689758660859614 pbc="F F F"
Bi       0.00000000       0.00000000       0.00000000       0.00000000       0.00000000       0.06380491
Bi       0.00000000       0.00000000       5.17696970       0.00000000       0.00000000      -0.06380491
2
Properties=species:S:1:pos:R:3:forces:R:3 energy=-2.686069796169888 pbc="F F F"
Bi       0.00000000       0.00000000       0.00000000       0.00000000       0.00000000       0.06200573
Bi       0.00000000       0.00000000       5.23575758       0.00000000       0.00000000      -0.06200573
2
Properties=species:S:1:pos:R:3:forces:R:3 energy=-2.682441381264876 pbc="F F F"
Bi       0.00000000       0.00000000       0.00000000       0.00000000       0.00000000       0.06157061
Bi       0.00000000       0.00000000       5.29454545       0.00000000       0.00000000      -0.06157061
2
Properties=species:S:1:pos:R:3:forces:R:3 energy=-2.6788265336479866 pbc="F F F"
Bi       0.00000000       0.00000000       0.00000000       0.00000000       0.00000000       0.06132974
Bi       0.00000000       0.00000000       5.35333333       0.00000000       0.00000000      -0.06132974
2
Properties=species:S:1:pos:R:3:forces:R:3 energy=-2.6752571614913427 pbc="F F F"
Bi       0.00000000       0.00000000       0.00000000       0.00000000       0.00000000       0.05965456
Bi       0.00000000       0.00000000       5.41212121       0.00000000       0.00000000      -0.05965456
2
Properties=species:S:1:pos:R:3:forces:R:3 energy=-2.6718940584638813 pbc="F F F"
Bi       0.00000000       0.00000000       0.00000000       0.00000000       0.00000000       0.05388090
Bi       0.00000000       0.00000000       5.47090909       0.00000000       0.00000000      -0.05388090
2
Properties=species:S:1:pos:R:3:forces:R:3 energy=-2.669012102772517 pbc="F F F"
Bi       0.00000000       0.00000000       0.00000000       0.00000000       0.00000000       0.04380076
Bi       0.00000000       0.00000000       5.52969697       0.00000000       0.00000000      -0.04380076
2
Properties=species:S:1:pos:R:3:forces:R:3 energy=-2.666718719666266 pbc="F F F"
Bi       0.00000000       0.00000000       0.00000000       0.00000000       0.00000000       0.03484820
Bi       0.00000000       0.00000000       5.58848485       0.00000000       0.00000000      -0.03484820
2
Properties=species:S:1:pos:R:3:forces:R:3 energy=-2.664852607393105 pbc="F F F"
Bi       0.00000000       0.00000000       0.00000000       0.00000000       0.00000000       0.02874521
Bi       0.00000000       0.00000000       5.64727273       0.00000000       0.00000000      -0.02874521
2
Properties=species:S:1:pos:R:3:forces:R:3 energy=-2.6634090379312214 pbc="F F F"
Bi       0.00000000       0.00000000       0.00000000       0.00000000       0.00000000       0.01906106
Bi       0.00000000       0.00000000       5.70606061       0.00000000       0.00000000      -0.01906106
2
Properties=species:S:1:pos:R:3:forces:R:3 energy=-2.662797644493822 pbc="F F F"
Bi       0.00000000       0.00000000       0.00000000       0.00000000       0.00000000       0.00061957
Bi       0.00000000       0.00000000       5.76484848       0.00000000       0.00000000      -0.00061957
2
Properties=species:S:1:pos:R:3:forces:R:3 energy=-2.6632755255044724 pbc="F F F"
Bi       0.00000000       0.00000000       0.00000000       0.00000000       0.00000000      -0.01455683
Bi       0.00000000       0.00000000       5.82363636       0.00000000       0.00000000       0.01455683
2
Properties=species:S:1:pos:R:3:forces:R:3 energy=-2.6641039216528597 pbc="F F F"
Bi       0.00000000       0.00000000       0.00000000       0.00000000       0.00000000      -0.01049610
Bi       0.00000000       0.00000000       5.88242424       0.00000000       0.00000000       0.01049610
2
Properties=species:S:1:pos:R:3:forces:R:3 energy=-2.66430621349811 pbc="F F F"
Bi       0.00000000       0.00000000       0.00000000       0.00000000       0.00000000       0.00376016
Bi       0.00000000       0.00000000       5.94121212       0.00000000       0.00000000      -0.00376016
2
Properties=species:S:1:pos:R:3:forces:R:3 energy=-2.663829522128749 pbc="F F F"
Bi       0.00000000       0.00000000       0.00000000       0.00000000       0.00000000       0.01019728
Bi       0.00000000       0.00000000       6.00000000       0.00000000       0.00000000      -0.01019728
