2
Properties=species:S:1:pos:R:3:forces:R:3 energy=6333.410443430421 pbc="F F F"
Cu       0.00000000       0.00000000       0.00000000       0.00000000       0.00000000  -62554.79687500
Cu       0.00000000       0.00000000       0.18000000       0.00000000       0.00000000   62554.79687500
2
Properties=species:S:1:pos:R:3:forces:R:3 energy=4057.420209055421 pbc="F F F"
Cu       0.00000000       0.00000000       0.00000000       0.00000000       0.00000000  -22848.76367188
Cu       0.00000000       0.00000000       0.23878788       0.00000000       0.00000000   22848.76367188
2
Properties=species:S:1:pos:R:3:forces:R:3 energy=3150.254925855464 pbc="F F F"
Cu       0.00000000       0.00000000       0.00000000       0.00000000       0.00000000  -10185.78515625
Cu       0.00000000       0.00000000       0.29757576       0.00000000       0.00000000   10185.78515625
2
Properties=species:S:1:pos:R:3:forces:R:3 energy=2708.076459058589 pbc="F F F"
Cu       0.00000000       0.00000000       0.00000000       0.00000000       0.00000000   -5615.17431641
Cu       0.00000000       0.00000000       0.35636364       0.00000000       0.00000000    5615.17431641
2
Properties=species:S:1:pos:R:3:forces:R:3 energy=2431.7537051586746 pbc="F F F"
Cu       0.00000000       0.00000000       0.00000000       0.00000000       0.00000000   -4110.68603516
Cu       0.00000000       0.00000000       0.41515152       0.00000000       0.00000000    4110.68603516
2
Properties=species:S:1:pos:R:3:forces:R:3 energy=2197.6785098588457 pbc="F F F"
Cu       0.00000000       0.00000000       0.00000000       0.00000000       0.00000000   -4015.72607422
Cu       0.00000000       0.00000000       0.47393939       0.00000000       0.00000000    4015.72607422
2
Properties=species:S:1:pos:R:3:forces:R:3 energy=1945.7599307826258 pbc="F F F"
Cu       0.00000000       0.00000000       0.00000000       0.00000000       0.00000000   -4633.85205078
Cu       0.00000000       0.00000000       0.53272727       0.00000000       0.00000000    4633.85205078
2
Properties=species:S:1:pos:R:3:forces:R:3 energy=1647.6995060159522 pbc="F F F"
Cu       0.00000000       0.00000000       0.00000000       0.00000000       0.00000000   -5513.38574219
Cu       0.00000000       0.00000000       0.59151515       0.00000000       0.00000000    5513.38574219
2
Properties=species:S:1:pos:R:3:forces:R:3 energy=1301.4257023747068 pbc="F F F"
Cu       0.00000000       0.00000000       0.00000000       0.00000000       0.00000000   -6190.33740234
Cu       0.00000000       0.00000000       0.65030303       0.00000000       0.00000000    6190.33740234
2
Properties=species:S:1:pos:R:3:forces:R:3 energy=934.9584173198272 pbc="F F F"
Cu       0.00000000       0.00000000       0.00000000       0.00000000       0.00000000   -6086.12646484
Cu       0.00000000       0.00000000       0.70909091       0.00000000       0.00000000    6086.12646484
2
Properties=species:S:1:pos:R:3:forces:R:3 energy=614.1057563517414 pbc="F F F"
Cu       0.00000000       0.00000000       0.00000000       0.00000000       0.00000000   -4651.84765625
Cu       0.00000000       0.00000000       0.76787879       0.00000000       0.00000000    4651.84765625
2
Properties=species:S:1:pos:R:3:forces:R:3 energy=389.1238229924102 pbc="F F F"
Cu       0.00000000       0.00000000       0.00000000       0.00000000       0.00000000   -3081.82226562
Cu       0.00000000       0.00000000       0.82666667       0.00000000       0.00000000    3081.82226562
2
Properties=species:S:1:pos:R:3:forces:R:3 energy=241.99342171687127 pbc="F F F"
Cu       0.00000000       0.00000000       0.00000000       0.00000000       0.00000000   -1984.83959961
Cu       0.00000000       0.00000000       0.88545455       0.00000000       0.00000000    1984.83959961
2
Properties=species:S:1:pos:R:3:forces:R:3 energy=149.50195185829836 pbc="F F F"
Cu       0.00000000       0.00000000       0.00000000       0.00000000       0.00000000   -1218.25439453
Cu       0.00000000       0.00000000       0.94424242       0.00000000       0.00000000    1218.25439453
2
Properties=species:S:1:pos:R:3:forces:R:3 energy=94.5829843070183 pbc="F F F"
Cu       0.00000000       0.00000000       0.00000000       0.00000000       0.00000000    -673.38934326
Cu       0.00000000       0.00000000       1.00303030       0.00000000       0.00000000     673.38934326
2
Properties=species:S:1:pos:R:3:forces:R:3 energy=65.27194240519614 pbc="F F F"
Cu       0.00000000       0.00000000       0.00000000       0.00000000       0.00000000    -372.30096436
Cu       0.00000000       0.00000000       1.06181818       0.00000000       0.00000000     372.30096436
2
Properties=species:S:1:pos:R:3:forces:R:3 energy=47.10614157216939 pbc="F F F"
Cu       0.00000000       0.00000000       0.00000000       0.00000000       0.00000000    -259.15145874
Cu       0.00000000       0.00000000       1.12060606       0.00000000       0.00000000     259.15145874
2
Properties=species:S:1:pos:R:3:forces:R:3 energy=34.08346854484844 pbc="F F F"
Cu       0.00000000       0.00000000       0.00000000       0.00000000       0.00000000    -187.73072815
Cu       0.00000000       0.00000000       1.17939394       0.00000000       0.00000000     187.73072815
2
Properties=species:S:1:pos:R:3:forces:R:3 energy=24.669516746777173 pbc="F F F"
Cu       0.00000000       0.00000000       0.00000000       0.00000000       0.00000000    -135.16319275
Cu       0.00000000       0.00000000       1.23818182       0.00000000       0.00000000     135.16319275
2
Properties=species:S:1:pos:R:3:forces:R:3 energy=17.899434899931375 pbc="F F F"
Cu       0.00000000       0.00000000       0.00000000       0.00000000       0.00000000     -97.51850128
Cu       0.00000000       0.00000000       1.29696970       0.00000000       0.00000000      97.51850128
2
Properties=species:S:1:pos:R:3:forces:R:3 energy=12.958661280816216 pbc="F F F"
Cu       0.00000000       0.00000000       0.00000000       0.00000000       0.00000000     -72.30265045
Cu       0.00000000       0.00000000       1.35575758       0.00000000       0.00000000      72.30265045
2
Properties=species:S:1:pos:R:3:forces:R:3 energy=9.23631326338599 pbc="F F F"
Cu       0.00000000       0.00000000       0.00000000       0.00000000       0.00000000     -55.39219666
Cu       0.00000000       0.00000000       1.41454545       0.00000000       0.00000000      55.39219666
2
Properties=species:S:1:pos:R:3:forces:R:3 energy=6.351730961635218 pbc="F F F"
Cu       0.00000000       0.00000000       0.00000000       0.00000000       0.00000000     -43.33356857
Cu       0.00000000       0.00000000       1.47333333       0.00000000       0.00000000      43.33356857
2
Properties=species:S:1:pos:R:3:forces:R:3 energy=4.0881891972000295 pbc="F F F"
Cu       0.00000000       0.00000000       0.00000000       0.00000000       0.00000000     -34.02688599
Cu       0.00000000       0.00000000       1.53212121       0.00000000       0.00000000      34.02688599
2
Properties=species:S:1:pos:R:3:forces:R:3 energy=2.316463157180782 pbc="F F F"
Cu       0.00000000       0.00000000       0.00000000       0.00000000       0.00000000     -26.49851418
Cu       0.00000000       0.00000000       1.59090909       0.00000000       0.00000000      26.49851418
2
Properties=species:S:1:pos:R:3:forces:R:3 energy=0.946101587534718 pbc="F F F"
Cu       0.00000000       0.00000000       0.00000000       0.00000000       0.00000000     -20.33164215
Cu       0.00000000       0.00000000       1.64969697       0.00000000       0.00000000      20.33164215
2
Properties=species:S:1:pos:R:3:forces:R:3 energy=-0.09756036590633436 pbc="F F F"
Cu       0.00000000       0.00000000       0.00000000       0.00000000       0.00000000     -15.36372852
Cu       0.00000000       0.00000000       1.70848485       0.00000000       0.00000000      15.36372852
2
Properties=species:S:1:pos:R:3:forces:R:3 energy=-0.8807933286488279 pbc="F F F"
Cu       0.00000000       0.00000000       0.00000000       0.00000000       0.00000000     -11.44030476
Cu       0.00000000       0.00000000       1.76727273       0.00000000       0.00000000      11.44030476
2
Properties=species:S:1:pos:R:3:forces:R:3 energy=-1.4593725399424513 pbc="F F F"
Cu       0.00000000       0.00000000       0.00000000       0.00000000       0.00000000      -8.37099743
Cu       0.00000000       0.00000000       1.82606061       0.00000000       0.00000000       8.37099743
2
Properties=species:S:1:pos:R:3:forces:R:3 energy=-1.878531478366624 pbc="F F F"
Cu       0.00000000       0.00000000       0.00000000       0.00000000       0.00000000      -5.99191952
Cu       0.00000000       0.00000000       1.88484848       0.00000000       0.00000000       5.99191952
2
Properties=species:S:1:pos:R:3:forces:R:3 energy=-2.174686378259181 pbc="F F F"
Cu       0.00000000       0.00000000       0.00000000       0.00000000       0.00000000      -4.16491222
Cu       0.00000000       0.00000000       1.94363636       0.00000000       0.00000000       4.16491222
2
Properties=species:S:1:pos:R:3:forces:R:3 energy=-2.3766936199602378 pbc="F F F"
Cu       0.00000000       0.00000000       0.00000000       0.00000000       0.00000000      -2.77086091
Cu       0.00000000       0.00000000       2.00242424       0.00000000       0.00000000       2.77086091
2
Properties=species:S:1:pos:R:3:forces:R:3 energy=-2.507032571068526 pbc="F F F"
Cu       0.00000000       0.00000000       0.00000000       0.00000000       0.00000000      -1.71236730
Cu       0.00000000       0.00000000       2.06121212       0.00000000       0.00000000       1.71236730
2
Properties=species:S:1:pos:R:3:forces:R:3 energy=-2.5831053731787343 pbc="F F F"
Cu       0.00000000       0.00000000       0.00000000       0.00000000       0.00000000      -0.91366136
Cu       0.00000000       0.00000000       2.12000000       0.00000000       0.00000000       0.91366136
2
Properties=species:S:1:pos:R:3:forces:R:3 energy=-2.6183975000082795 pbc="F F F"
Cu       0.00000000       0.00000000       0.00000000       0.00000000       0.00000000      -0.31643480
Cu       0.00000000       0.00000000       2.17878788       0.00000000       0.00000000       0.31643480
2
Properties=species:S:1:pos:R:3:forces:R:3 energy=-2.623357179509701 pbc="F F F"
Cu       0.00000000       0.00000000       0.00000000       0.00000000       0.00000000       0.12498915
Cu       0.00000000       0.00000000       2.23757576       0.00000000       0.00000000      -0.12498915
2
Properties=species:S:1:pos:R:3:forces:R:3 energy=-2.606040558737968 pbc="F F F"
Cu       0.00000000       0.00000000       0.00000000       0.00000000       0.00000000       0.44683409
Cu       0.00000000       0.00000000       2.29636364       0.00000000       0.00000000      -0.44683409
2
Properties=species:S:1:pos:R:3:forces:R:3 energy=-2.572602665942603 pbc="F F F"
Cu       0.00000000       0.00000000       0.00000000       0.00000000       0.00000000       0.67754298
Cu       0.00000000       0.00000000       2.35515152       0.00000000       0.00000000      -0.67754298
2
Properties=species:S:1:pos:R:3:forces:R:3 energy=-2.527735896286932 pbc="F F F"
Cu       0.00000000       0.00000000       0.00000000       0.00000000       0.00000000       0.83873069
Cu       0.00000000       0.00000000       2.41393939       0.00000000       0.00000000      -0.83873069
2
Properties=species:S:1:pos:R:3:forces:R:3 energy=-2.4750417688137394 pbc="F F F"
Cu       0.00000000       0.00000000       0.00000000       0.00000000       0.00000000       0.94593441
Cu       0.00000000       0.00000000       2.47272727       0.00000000       0.00000000      -0.94593441
2
Properties=species:S:1:pos:R:3:forces:R:3 energy=-2.4173702596066113 pbc="F F F"
Cu       0.00000000       0.00000000       0.00000000       0.00000000       0.00000000       1.00943398
Cu       0.00000000       0.00000000       2.53151515       0.00000000       0.00000000      -1.00943398
2
Properties=species:S:1:pos:R:3:forces:R:3 energy=-2.357071598819371 pbc="F F F"
Cu       0.00000000       0.00000000       0.00000000       0.00000000       0.00000000       1.03658247
Cu       0.00000000       0.00000000       2.59030303       0.00000000       0.00000000      -1.03658247
2
Properties=species:S:1:pos:R:3:forces:R:3 energy=-2.2960068611279487 pbc="F F F"
Cu       0.00000000       0.00000000       0.00000000       0.00000000       0.00000000       1.03786075
Cu       0.00000000       0.00000000       2.64909091       0.00000000       0.00000000      -1.03786075
2
Properties=species:S:1:pos:R:3:forces:R:3 energy=-2.2352005375689536 pbc="F F F"
Cu       0.00000000       0.00000000       0.00000000       0.00000000       0.00000000       1.03093624
Cu       0.00000000       0.00000000       2.70787879       0.00000000       0.00000000      -1.03093624
2
Properties=species:S:1:pos:R:3:forces:R:3 energy=-2.1747129913297383 pbc="F F F"
Cu       0.00000000       0.00000000       0.00000000       0.00000000       0.00000000       1.02740204
Cu       0.00000000       0.00000000       2.76666667       0.00000000       0.00000000      -1.02740204
2
Properties=species:S:1:pos:R:3:forces:R:3 energy=-2.1144461729210042 pbc="F F F"
Cu       0.00000000       0.00000000       0.00000000       0.00000000       0.00000000       1.02162421
Cu       0.00000000       0.00000000       2.82545455       0.00000000       0.00000000      -1.02162421
2
Properties=species:S:1:pos:R:3:forces:R:3 energy=-2.0548110436919966 pbc="F F F"
Cu       0.00000000       0.00000000       0.00000000       0.00000000       0.00000000       1.00511527
Cu       0.00000000       0.00000000       2.88424242       0.00000000       0.00000000      -1.00511527
2
Properties=species:S:1:pos:R:3:forces:R:3 energy=-1.9965061157492225 pbc="F F F"
Cu       0.00000000       0.00000000       0.00000000       0.00000000       0.00000000       0.97664142
Cu       0.00000000       0.00000000       2.94303030       0.00000000       0.00000000      -0.97664142
2
Properties=species:S:1:pos:R:3:forces:R:3 energy=-1.9401605010812553 pbc="F F F"
Cu       0.00000000       0.00000000       0.00000000       0.00000000       0.00000000       0.93904078
Cu       0.00000000       0.00000000       3.00181818       0.00000000       0.00000000      -0.93904078
2
Properties=species:S:1:pos:R:3:forces:R:3 energy=-1.8862129186698433 pbc="F F F"
Cu       0.00000000       0.00000000       0.00000000       0.00000000       0.00000000       0.89554620
Cu       0.00000000       0.00000000       3.06060606       0.00000000       0.00000000      -0.89554620
2
Properties=species:S:1:pos:R:3:forces:R:3 energy=-1.8349316269682594 pbc="F F F"
Cu       0.00000000       0.00000000       0.00000000       0.00000000       0.00000000       0.84867895
Cu       0.00000000       0.00000000       3.11939394       0.00000000       0.00000000      -0.84867895
2
Properties=species:S:1:pos:R:3:forces:R:3 energy=-1.7864587471225344 pbc="F F F"
Cu       0.00000000       0.00000000       0.00000000       0.00000000       0.00000000       0.80024087
Cu       0.00000000       0.00000000       3.17818182       0.00000000       0.00000000      -0.80024087
2
Properties=species:S:1:pos:R:3:forces:R:3 energy=-1.7408489179507702 pbc="F F F"
Cu       0.00000000       0.00000000       0.00000000       0.00000000       0.00000000       0.75150204
Cu       0.00000000       0.00000000       3.23696970       0.00000000       0.00000000      -0.75150204
2
Properties=species:S:1:pos:R:3:forces:R:3 energy=-1.6980885719320564 pbc="F F F"
Cu       0.00000000       0.00000000       0.00000000       0.00000000       0.00000000       0.70338809
Cu       0.00000000       0.00000000       3.29575758       0.00000000       0.00000000      -0.70338809
2
Properties=species:S:1:pos:R:3:forces:R:3 energy=-1.6581210550735106 pbc="F F F"
Cu       0.00000000       0.00000000       0.00000000       0.00000000       0.00000000       0.65659976
Cu       0.00000000       0.00000000       3.35454545       0.00000000       0.00000000      -0.65659976
2
Properties=species:S:1:pos:R:3:forces:R:3 energy=-1.6208516734108112 pbc="F F F"
Cu       0.00000000       0.00000000       0.00000000       0.00000000       0.00000000       0.61167437
Cu       0.00000000       0.00000000       3.41333333       0.00000000       0.00000000      -0.61167437
2
Properties=species:S:1:pos:R:3:forces:R:3 energy=-1.586158739474722 pbc="F F F"
Cu       0.00000000       0.00000000       0.00000000       0.00000000       0.00000000       0.56899536
Cu       0.00000000       0.00000000       3.47212121       0.00000000       0.00000000      -0.56899536
2
Properties=species:S:1:pos:R:3:forces:R:3 energy=-1.553903338125556 pbc="F F F"
Cu       0.00000000       0.00000000       0.00000000       0.00000000       0.00000000       0.52878439
Cu       0.00000000       0.00000000       3.53090909       0.00000000       0.00000000      -0.52878439
2
Properties=species:S:1:pos:R:3:forces:R:3 energy=-1.5239367277046596 pbc="F F F"
Cu       0.00000000       0.00000000       0.00000000       0.00000000       0.00000000       0.49109492
Cu       0.00000000       0.00000000       3.58969697       0.00000000       0.00000000      -0.49109492
2
Properties=species:S:1:pos:R:3:forces:R:3 energy=-1.4961142375082046 pbc="F F F"
Cu       0.00000000       0.00000000       0.00000000       0.00000000       0.00000000       0.45583880
Cu       0.00000000       0.00000000       3.64848485       0.00000000       0.00000000      -0.45583880
2
Properties=species:S:1:pos:R:3:forces:R:3 energy=-1.4702976658122204 pbc="F F F"
Cu       0.00000000       0.00000000       0.00000000       0.00000000       0.00000000       0.42281660
Cu       0.00000000       0.00000000       3.70727273       0.00000000       0.00000000      -0.42281660
2
Properties=species:S:1:pos:R:3:forces:R:3 energy=-1.4463623345635142 pbc="F F F"
Cu       0.00000000       0.00000000       0.00000000       0.00000000       0.00000000       0.39177069
Cu       0.00000000       0.00000000       3.76606061       0.00000000       0.00000000      -0.39177069
2
Properties=species:S:1:pos:R:3:forces:R:3 energy=-1.4242013198935557 pbc="F F F"
Cu       0.00000000       0.00000000       0.00000000       0.00000000       0.00000000       0.36244252
Cu       0.00000000       0.00000000       3.82484848       0.00000000       0.00000000      -0.36244252
2
Properties=species:S:1:pos:R:3:forces:R:3 energy=-1.4037190516627556 pbc="F F F"
Cu       0.00000000       0.00000000       0.00000000       0.00000000       0.00000000       0.33459997
Cu       0.00000000       0.00000000       3.88363636       0.00000000       0.00000000      -0.33459997
2
Properties=species:S:1:pos:R:3:forces:R:3 energy=-1.3848346461528802 pbc="F F F"
Cu       0.00000000       0.00000000       0.00000000       0.00000000       0.00000000       0.30806980
Cu       0.00000000       0.00000000       3.94242424       0.00000000       0.00000000      -0.30806980
2
Properties=species:S:1:pos:R:3:forces:R:3 energy=-1.3674743515323002 pbc="F F F"
Cu       0.00000000       0.00000000       0.00000000       0.00000000       0.00000000       0.28274128
Cu       0.00000000       0.00000000       4.00121212       0.00000000       0.00000000      -0.28274128
2
Properties=species:S:1:pos:R:3:forces:R:3 energy=-1.3515686920007335 pbc="F F F"
Cu       0.00000000       0.00000000       0.00000000       0.00000000       0.00000000       0.25856531
Cu       0.00000000       0.00000000       4.06000000       0.00000000       0.00000000      -0.25856531
2
Properties=species:S:1:pos:R:3:forces:R:3 energy=-1.3370505224267462 pbc="F F F"
Cu       0.00000000       0.00000000       0.00000000       0.00000000       0.00000000       0.23554912
Cu       0.00000000       0.00000000       4.11878788       0.00000000       0.00000000      -0.23554912
2
Properties=species:S:1:pos:R:3:forces:R:3 energy=-1.3238500362287509 pbc="F F F"
Cu       0.00000000       0.00000000       0.00000000       0.00000000       0.00000000       0.21374099
Cu       0.00000000       0.00000000       4.17757576       0.00000000       0.00000000      -0.21374099
2
Properties=species:S:1:pos:R:3:forces:R:3 energy=-1.3118943717331417 pbc="F F F"
Cu       0.00000000       0.00000000       0.00000000       0.00000000       0.00000000       0.19322088
Cu       0.00000000       0.00000000       4.23636364       0.00000000       0.00000000      -0.19322088
2
Properties=species:S:1:pos:R:3:forces:R:3 energy=-1.3011046687879695 pbc="F F F"
Cu       0.00000000       0.00000000       0.00000000       0.00000000       0.00000000       0.17408296
Cu       0.00000000       0.00000000       4.29515152       0.00000000       0.00000000      -0.17408296
2
Properties=species:S:1:pos:R:3:forces:R:3 energy=-1.291397551959441 pbc="F F F"
Cu       0.00000000       0.00000000       0.00000000       0.00000000       0.00000000       0.15642202
Cu       0.00000000       0.00000000       4.35393939       0.00000000       0.00000000      -0.15642202
2
Properties=species:S:1:pos:R:3:forces:R:3 energy=-1.282683106389825 pbc="F F F"
Cu       0.00000000       0.00000000       0.00000000       0.00000000       0.00000000       0.14030929
Cu       0.00000000       0.00000000       4.41272727       0.00000000       0.00000000      -0.14030929
2
Properties=species:S:1:pos:R:3:forces:R:3 energy=-1.2748693871596124 pbc="F F F"
Cu       0.00000000       0.00000000       0.00000000       0.00000000       0.00000000       0.12577990
Cu       0.00000000       0.00000000       4.47151515       0.00000000       0.00000000      -0.12577990
2
Properties=species:S:1:pos:R:3:forces:R:3 energy=-1.2678635717826334 pbc="F F F"
Cu       0.00000000       0.00000000       0.00000000       0.00000000       0.00000000       0.11281341
Cu       0.00000000       0.00000000       4.53030303       0.00000000       0.00000000      -0.11281341
2
Properties=species:S:1:pos:R:3:forces:R:3 energy=-1.2615763507748874 pbc="F F F"
Cu       0.00000000       0.00000000       0.00000000       0.00000000       0.00000000       0.10132390
Cu       0.00000000       0.00000000       4.58909091       0.00000000       0.00000000      -0.10132390
2
Properties=species:S:1:pos:R:3:forces:R:3 energy=-1.2559245154128682 pbc="F F F"
Cu       0.00000000       0.00000000       0.00000000       0.00000000       0.00000000       0.09115981
Cu       0.00000000       0.00000000       4.64787879       0.00000000       0.00000000      -0.09115981
2
Properties=species:S:1:pos:R:3:forces:R:3 energy=-1.2508360342158134 pbc="F F F"
Cu       0.00000000       0.00000000       0.00000000       0.00000000       0.00000000       0.08211524
Cu       0.00000000       0.00000000       4.70666667       0.00000000       0.00000000      -0.08211524
2
Properties=species:S:1:pos:R:3:forces:R:3 energy=-1.2462522882438538 pbc="F F F"
Cu       0.00000000       0.00000000       0.00000000       0.00000000       0.00000000       0.07396202
Cu       0.00000000       0.00000000       4.76545455       0.00000000       0.00000000      -0.07396202
2
Properties=species:S:1:pos:R:3:forces:R:3 energy=-1.2421266575936019 pbc="F F F"
Cu       0.00000000       0.00000000       0.00000000       0.00000000       0.00000000       0.06648470
Cu       0.00000000       0.00000000       4.82424242       0.00000000       0.00000000      -0.06648470
2
Properties=species:S:1:pos:R:3:forces:R:3 energy=-1.2384252002239347 pbc="F F F"
Cu       0.00000000       0.00000000       0.00000000       0.00000000       0.00000000       0.05953478
Cu       0.00000000       0.00000000       4.88303030       0.00000000       0.00000000      -0.05953478
2
Properties=species:S:1:pos:R:3:forces:R:3 energy=-1.2351173932291848 pbc="F F F"
Cu       0.00000000       0.00000000       0.00000000       0.00000000       0.00000000       0.05307547
Cu       0.00000000       0.00000000       4.94181818       0.00000000       0.00000000      -0.05307547
2
Properties=species:S:1:pos:R:3:forces:R:3 energy=-1.2321728282411664 pbc="F F F"
Cu       0.00000000       0.00000000       0.00000000       0.00000000       0.00000000       0.04721193
Cu       0.00000000       0.00000000       5.00060606       0.00000000       0.00000000      -0.04721193
2
Properties=species:S:1:pos:R:3:forces:R:3 energy=-1.2295501134619105 pbc="F F F"
Cu       0.00000000       0.00000000       0.00000000       0.00000000       0.00000000       0.04217470
Cu       0.00000000       0.00000000       5.05939394       0.00000000       0.00000000      -0.04217470
2
Properties=species:S:1:pos:R:3:forces:R:3 energy=-1.2271924375773733 pbc="F F F"
Cu       0.00000000       0.00000000       0.00000000       0.00000000       0.00000000       0.03823938
Cu       0.00000000       0.00000000       5.11818182       0.00000000       0.00000000      -0.03823938
2
Properties=species:S:1:pos:R:3:forces:R:3 energy=-1.2250292002576666 pbc="F F F"
Cu       0.00000000       0.00000000       0.00000000       0.00000000       0.00000000       0.03557184
Cu       0.00000000       0.00000000       5.17696970       0.00000000       0.00000000      -0.03557184
2
Properties=species:S:1:pos:R:3:forces:R:3 energy=-1.2229877627756092 pbc="F F F"
Cu       0.00000000       0.00000000       0.00000000       0.00000000       0.00000000       0.03403708
Cu       0.00000000       0.00000000       5.23575758       0.00000000       0.00000000      -0.03403708
2
Properties=species:S:1:pos:R:3:forces:R:3 energy=-1.2210158807359612 pbc="F F F"
Cu       0.00000000       0.00000000       0.00000000       0.00000000       0.00000000       0.03307985
Cu       0.00000000       0.00000000       5.29454545       0.00000000       0.00000000      -0.03307985
2
Properties=species:S:1:pos:R:3:forces:R:3 energy=-1.2191032243120326 pbc="F F F"
Cu       0.00000000       0.00000000       0.00000000       0.00000000       0.00000000       0.03188966
Cu       0.00000000       0.00000000       5.35333333       0.00000000       0.00000000      -0.03188966
2
Properties=species:S:1:pos:R:3:forces:R:3 energy=-1.2172787683125994 pbc="F F F"
Cu       0.00000000       0.00000000       0.00000000       0.00000000       0.00000000       0.03010756
Cu       0.00000000       0.00000000       5.41212121       0.00000000       0.00000000      -0.03010756
2
Properties=species:S:1:pos:R:3:forces:R:3 energy=-1.2155597242565976 pbc="F F F"
Cu       0.00000000       0.00000000       0.00000000       0.00000000       0.00000000       0.02849743
Cu       0.00000000       0.00000000       5.47090909       0.00000000       0.00000000      -0.02849743
2
Properties=species:S:1:pos:R:3:forces:R:3 energy=-1.2139173280989766 pbc="F F F"
Cu       0.00000000       0.00000000       0.00000000       0.00000000       0.00000000       0.02734037
Cu       0.00000000       0.00000000       5.52969697       0.00000000       0.00000000      -0.02734037
2
Properties=species:S:1:pos:R:3:forces:R:3 energy=-1.2123685383088967 pbc="F F F"
Cu       0.00000000       0.00000000       0.00000000       0.00000000       0.00000000       0.02505783
Cu       0.00000000       0.00000000       5.58848485       0.00000000       0.00000000      -0.02505783
2
Properties=species:S:1:pos:R:3:forces:R:3 energy=-1.2110011339689335 pbc="F F F"
Cu       0.00000000       0.00000000       0.00000000       0.00000000       0.00000000       0.02130811
Cu       0.00000000       0.00000000       5.64727273       0.00000000       0.00000000      -0.02130811
2
Properties=species:S:1:pos:R:3:forces:R:3 energy=-1.2098601871416932 pbc="F F F"
Cu       0.00000000       0.00000000       0.00000000       0.00000000       0.00000000       0.01777144
Cu       0.00000000       0.00000000       5.70606061       0.00000000       0.00000000      -0.01777144
2
Properties=species:S:1:pos:R:3:forces:R:3 energy=-1.208862524452891 pbc="F F F"
Cu       0.00000000       0.00000000       0.00000000       0.00000000       0.00000000       0.01651119
Cu       0.00000000       0.00000000       5.76484848       0.00000000       0.00000000      -0.01651119
2
Properties=species:S:1:pos:R:3:forces:R:3 energy=-1.2079138088286683 pbc="F F F"
Cu       0.00000000       0.00000000       0.00000000       0.00000000       0.00000000       0.01545757
Cu       0.00000000       0.00000000       5.82363636       0.00000000       0.00000000      -0.01545757
2
Properties=species:S:1:pos:R:3:forces:R:3 energy=-1.20710247004298 pbc="F F F"
Cu       0.00000000       0.00000000       0.00000000       0.00000000       0.00000000       0.01179797
Cu       0.00000000       0.00000000       5.88242424       0.00000000       0.00000000      -0.01179797
2
Properties=species:S:1:pos:R:3:forces:R:3 energy=-1.206537733347185 pbc="F F F"
Cu       0.00000000       0.00000000       0.00000000       0.00000000       0.00000000       0.00756478
Cu       0.00000000       0.00000000       5.94121212       0.00000000       0.00000000      -0.00756478
2
Properties=species:S:1:pos:R:3:forces:R:3 energy=-1.2061662755827145 pbc="F F F"
Cu       0.00000000       0.00000000       0.00000000       0.00000000       0.00000000       0.00560382
Cu       0.00000000       0.00000000       6.00000000       0.00000000       0.00000000      -0.00560382
