2
Properties=species:S:1:pos:R:3:forces:R:3 energy=1648.4829783687737 pbc="F F F"
F        0.00000000       0.00000000       0.00000000       0.00000000       0.00000000   -9934.78027344
F        0.00000000       0.00000000       0.18000000       0.00000000       0.00000000    9934.78027344
2
Properties=species:S:1:pos:R:3:forces:R:3 energy=1234.7495799316698 pbc="F F F"
F        0.00000000       0.00000000       0.00000000       0.00000000       0.00000000   -5311.33496094
F        0.00000000       0.00000000       0.23878788       0.00000000       0.00000000    5311.33496094
2
Properties=species:S:1:pos:R:3:forces:R:3 energy=938.2619700695764 pbc="F F F"
F        0.00000000       0.00000000       0.00000000       0.00000000       0.00000000   -5513.84326172
F        0.00000000       0.00000000       0.29757576       0.00000000       0.00000000    5513.84326172
2
Properties=species:S:1:pos:R:3:forces:R:3 energy=676.5589671434527 pbc="F F F"
F        0.00000000       0.00000000       0.00000000       0.00000000       0.00000000   -3295.69628906
F        0.00000000       0.00000000       0.35636364       0.00000000       0.00000000    3295.69628906
2
Properties=species:S:1:pos:R:3:forces:R:3 energy=481.55643419278385 pbc="F F F"
F        0.00000000       0.00000000       0.00000000       0.00000000       0.00000000   -3019.23779297
F        0.00000000       0.00000000       0.41515152       0.00000000       0.00000000    3019.23779297
2
Properties=species:S:1:pos:R:3:forces:R:3 energy=324.75592761761806 pbc="F F F"
F        0.00000000       0.00000000       0.00000000       0.00000000       0.00000000   -2323.86889648
F        0.00000000       0.00000000       0.47393939       0.00000000       0.00000000    2323.86889648
2
Properties=species:S:1:pos:R:3:forces:R:3 energy=210.58298453366592 pbc="F F F"
F        0.00000000       0.00000000       0.00000000       0.00000000       0.00000000   -1540.36572266
F        0.00000000       0.00000000       0.53272727       0.00000000       0.00000000    1540.36572266
2
Properties=species:S:1:pos:R:3:forces:R:3 energy=137.45587887502427 pbc="F F F"
F        0.00000000       0.00000000       0.00000000       0.00000000       0.00000000   -1027.90771484
F        0.00000000       0.00000000       0.59151515       0.00000000       0.00000000    1027.90771484
2
Properties=species:S:1:pos:R:3:forces:R:3 energy=87.47972082242539 pbc="F F F"
F        0.00000000       0.00000000       0.00000000       0.00000000       0.00000000    -676.41333008
F        0.00000000       0.00000000       0.65030303       0.00000000       0.00000000     676.41333008
2
Properties=species:S:1:pos:R:3:forces:R:3 energy=56.0745810399018 pbc="F F F"
F        0.00000000       0.00000000       0.00000000       0.00000000       0.00000000    -412.30526733
F        0.00000000       0.00000000       0.70909091       0.00000000       0.00000000     412.30526733
2
Properties=species:S:1:pos:R:3:forces:R:3 energy=36.78169642667366 pbc="F F F"
F        0.00000000       0.00000000       0.00000000       0.00000000       0.00000000    -259.44772339
F        0.00000000       0.00000000       0.76787879       0.00000000       0.00000000     259.44772339
2
Properties=species:S:1:pos:R:3:forces:R:3 energy=24.331449930166922 pbc="F F F"
F        0.00000000       0.00000000       0.00000000       0.00000000       0.00000000    -171.74487305
F        0.00000000       0.00000000       0.82666667       0.00000000       0.00000000     171.74487305
2
Properties=species:S:1:pos:R:3:forces:R:3 energy=15.89005843392448 pbc="F F F"
F        0.00000000       0.00000000       0.00000000       0.00000000       0.00000000    -119.74359894
F        0.00000000       0.00000000       0.88545455       0.00000000       0.00000000     119.74359894
2
Properties=species:S:1:pos:R:3:forces:R:3 energy=9.898912021416377 pbc="F F F"
F        0.00000000       0.00000000       0.00000000       0.00000000       0.00000000     -86.13849640
F        0.00000000       0.00000000       0.94424242       0.00000000       0.00000000      86.13849640
2
Properties=species:S:1:pos:R:3:forces:R:3 energy=5.586710903912011 pbc="F F F"
F        0.00000000       0.00000000       0.00000000       0.00000000       0.00000000     -61.63651276
F        0.00000000       0.00000000       1.00303030       0.00000000       0.00000000      61.63651276
2
Properties=species:S:1:pos:R:3:forces:R:3 energy=2.555804899748199 pbc="F F F"
F        0.00000000       0.00000000       0.00000000       0.00000000       0.00000000     -42.14180374
F        0.00000000       0.00000000       1.06181818       0.00000000       0.00000000      42.14180374
2
Properties=species:S:1:pos:R:3:forces:R:3 energy=0.558922650938066 pbc="F F F"
F        0.00000000       0.00000000       0.00000000       0.00000000       0.00000000     -26.40596581
F        0.00000000       0.00000000       1.12060606       0.00000000       0.00000000      26.40596581
2
Properties=species:S:1:pos:R:3:forces:R:3 energy=-0.6223617920716111 pbc="F F F"
F        0.00000000       0.00000000       0.00000000       0.00000000       0.00000000     -14.41318989
F        0.00000000       0.00000000       1.17939394       0.00000000       0.00000000      14.41318989
2
Properties=species:S:1:pos:R:3:forces:R:3 energy=-1.2154700932013582 pbc="F F F"
F        0.00000000       0.00000000       0.00000000       0.00000000       0.00000000      -6.48861027
F        0.00000000       0.00000000       1.23818182       0.00000000       0.00000000       6.48861027
2
Properties=species:S:1:pos:R:3:forces:R:3 energy=-1.4676777942065757 pbc="F F F"
F        0.00000000       0.00000000       0.00000000       0.00000000       0.00000000      -2.70412993
F        0.00000000       0.00000000       1.29696970       0.00000000       0.00000000       2.70412993
2
Properties=species:S:1:pos:R:3:forces:R:3 energy=-1.586088457112805 pbc="F F F"
F        0.00000000       0.00000000       0.00000000       0.00000000       0.00000000      -1.59166372
F        0.00000000       0.00000000       1.35575758       0.00000000       0.00000000       1.59166372
2
Properties=species:S:1:pos:R:3:forces:R:3 energy=-1.6684642212076137 pbc="F F F"
F        0.00000000       0.00000000       0.00000000       0.00000000       0.00000000      -1.21696055
F        0.00000000       0.00000000       1.41454545       0.00000000       0.00000000       1.21696055
2
Properties=species:S:1:pos:R:3:forces:R:3 energy=-1.7243910022436473 pbc="F F F"
F        0.00000000       0.00000000       0.00000000       0.00000000       0.00000000      -0.63094407
F        0.00000000       0.00000000       1.47333333       0.00000000       0.00000000       0.63094407
2
Properties=species:S:1:pos:R:3:forces:R:3 energy=-1.7379392562257554 pbc="F F F"
F        0.00000000       0.00000000       0.00000000       0.00000000       0.00000000       0.18808767
F        0.00000000       0.00000000       1.53212121       0.00000000       0.00000000      -0.18808767
2
Properties=species:S:1:pos:R:3:forces:R:3 energy=-1.7027585394418348 pbc="F F F"
F        0.00000000       0.00000000       0.00000000       0.00000000       0.00000000       0.98595458
F        0.00000000       0.00000000       1.59090909       0.00000000       0.00000000      -0.98595458
2
Properties=species:S:1:pos:R:3:forces:R:3 energy=-1.6262788085655786 pbc="F F F"
F        0.00000000       0.00000000       0.00000000       0.00000000       0.00000000       1.56906807
F        0.00000000       0.00000000       1.64969697       0.00000000       0.00000000      -1.56906807
2
Properties=species:S:1:pos:R:3:forces:R:3 energy=-1.5245845476430495 pbc="F F F"
F        0.00000000       0.00000000       0.00000000       0.00000000       0.00000000       1.83266413
F        0.00000000       0.00000000       1.70848485       0.00000000       0.00000000      -1.83266413
2
Properties=species:S:1:pos:R:3:forces:R:3 energy=-1.4175999049452495 pbc="F F F"
F        0.00000000       0.00000000       0.00000000       0.00000000       0.00000000       1.75300038
F        0.00000000       0.00000000       1.76727273       0.00000000       0.00000000      -1.75300038
2
Properties=species:S:1:pos:R:3:forces:R:3 energy=-1.3237451616579778 pbc="F F F"
F        0.00000000       0.00000000       0.00000000       0.00000000       0.00000000       1.40730190
F        0.00000000       0.00000000       1.82606061       0.00000000       0.00000000      -1.40730190
2
Properties=species:S:1:pos:R:3:forces:R:3 energy=-1.2543429269599016 pbc="F F F"
F        0.00000000       0.00000000       0.00000000       0.00000000       0.00000000       0.94827491
F        0.00000000       0.00000000       1.88484848       0.00000000       0.00000000      -0.94827491
2
Properties=species:S:1:pos:R:3:forces:R:3 energy=-1.2116687599106912 pbc="F F F"
F        0.00000000       0.00000000       0.00000000       0.00000000       0.00000000       0.51634318
F        0.00000000       0.00000000       1.94363636       0.00000000       0.00000000      -0.51634318
2
Properties=species:S:1:pos:R:3:forces:R:3 energy=-1.1916391375578455 pbc="F F F"
F        0.00000000       0.00000000       0.00000000       0.00000000       0.00000000       0.18404874
F        0.00000000       0.00000000       2.00242424       0.00000000       0.00000000      -0.18404874
2
Properties=species:S:1:pos:R:3:forces:R:3 energy=-1.1878471253339788 pbc="F F F"
F        0.00000000       0.00000000       0.00000000       0.00000000       0.00000000      -0.03785409
F        0.00000000       0.00000000       2.06121212       0.00000000       0.00000000       0.03785409
2
Properties=species:S:1:pos:R:3:forces:R:3 energy=-1.1943185596253671 pbc="F F F"
F        0.00000000       0.00000000       0.00000000       0.00000000       0.00000000      -0.16949895
F        0.00000000       0.00000000       2.12000000       0.00000000       0.00000000       0.16949895
2
Properties=species:S:1:pos:R:3:forces:R:3 energy=-1.2065284155159253 pbc="F F F"
F        0.00000000       0.00000000       0.00000000       0.00000000       0.00000000      -0.23727646
F        0.00000000       0.00000000       2.17878788       0.00000000       0.00000000       0.23727646
2
Properties=species:S:1:pos:R:3:forces:R:3 energy=-1.221392825820714 pbc="F F F"
F        0.00000000       0.00000000       0.00000000       0.00000000       0.00000000      -0.26282194
F        0.00000000       0.00000000       2.23757576       0.00000000       0.00000000       0.26282194
2
Properties=species:S:1:pos:R:3:forces:R:3 energy=-1.236901388435947 pbc="F F F"
F        0.00000000       0.00000000       0.00000000       0.00000000       0.00000000      -0.26121518
F        0.00000000       0.00000000       2.29636364       0.00000000       0.00000000       0.26121518
2
Properties=species:S:1:pos:R:3:forces:R:3 energy=-1.2517749730535483 pbc="F F F"
F        0.00000000       0.00000000       0.00000000       0.00000000       0.00000000      -0.24264520
F        0.00000000       0.00000000       2.35515152       0.00000000       0.00000000       0.24264520
2
Properties=species:S:1:pos:R:3:forces:R:3 energy=-1.2652411494506126 pbc="F F F"
F        0.00000000       0.00000000       0.00000000       0.00000000       0.00000000      -0.21434049
F        0.00000000       0.00000000       2.41393939       0.00000000       0.00000000       0.21434049
2
Properties=species:S:1:pos:R:3:forces:R:3 energy=-1.276891823859256 pbc="F F F"
F        0.00000000       0.00000000       0.00000000       0.00000000       0.00000000      -0.18166140
F        0.00000000       0.00000000       2.47272727       0.00000000       0.00000000       0.18166140
2
Properties=species:S:1:pos:R:3:forces:R:3 energy=-1.2865922006872885 pbc="F F F"
F        0.00000000       0.00000000       0.00000000       0.00000000       0.00000000      -0.14851557
F        0.00000000       0.00000000       2.53151515       0.00000000       0.00000000       0.14851557
2
Properties=species:S:1:pos:R:3:forces:R:3 energy=-1.2943957344016943 pbc="F F F"
F        0.00000000       0.00000000       0.00000000       0.00000000       0.00000000      -0.11748828
F        0.00000000       0.00000000       2.59030303       0.00000000       0.00000000       0.11748828
2
Properties=species:S:1:pos:R:3:forces:R:3 energy=-1.3004747532859133 pbc="F F F"
F        0.00000000       0.00000000       0.00000000       0.00000000       0.00000000      -0.08999029
F        0.00000000       0.00000000       2.64909091       0.00000000       0.00000000       0.08999029
2
Properties=species:S:1:pos:R:3:forces:R:3 energy=-1.3050555200753697 pbc="F F F"
F        0.00000000       0.00000000       0.00000000       0.00000000       0.00000000      -0.06650208
F        0.00000000       0.00000000       2.70787879       0.00000000       0.00000000       0.06650208
2
Properties=species:S:1:pos:R:3:forces:R:3 energy=-1.3083698452612234 pbc="F F F"
F        0.00000000       0.00000000       0.00000000       0.00000000       0.00000000      -0.04686886
F        0.00000000       0.00000000       2.76666667       0.00000000       0.00000000       0.04686886
2
Properties=species:S:1:pos:R:3:forces:R:3 energy=-1.3106317268213523 pbc="F F F"
F        0.00000000       0.00000000       0.00000000       0.00000000       0.00000000      -0.03059096
F        0.00000000       0.00000000       2.82545455       0.00000000       0.00000000       0.03059096
2
Properties=species:S:1:pos:R:3:forces:R:3 energy=-1.3120202989361913 pbc="F F F"
F        0.00000000       0.00000000       0.00000000       0.00000000       0.00000000      -0.01705186
F        0.00000000       0.00000000       2.88424242       0.00000000       0.00000000       0.01705186
2
Properties=species:S:1:pos:R:3:forces:R:3 energy=-1.3126793317888854 pbc="F F F"
F        0.00000000       0.00000000       0.00000000       0.00000000       0.00000000      -0.00566991
F        0.00000000       0.00000000       2.94303030       0.00000000       0.00000000       0.00566991
2
Properties=species:S:1:pos:R:3:forces:R:3 energy=-1.312719600307947 pbc="F F F"
F        0.00000000       0.00000000       0.00000000       0.00000000       0.00000000       0.00404652
F        0.00000000       0.00000000       3.00181818       0.00000000       0.00000000      -0.00404652
2
Properties=species:S:1:pos:R:3:forces:R:3 energy=-1.3122279005157091 pbc="F F F"
F        0.00000000       0.00000000       0.00000000       0.00000000       0.00000000       0.01248915
F        0.00000000       0.00000000       3.06060606       0.00000000       0.00000000      -0.01248915
2
Properties=species:S:1:pos:R:3:forces:R:3 energy=-1.3112692792628036 pbc="F F F"
F        0.00000000       0.00000000       0.00000000       0.00000000       0.00000000       0.01999471
F        0.00000000       0.00000000       3.11939394       0.00000000       0.00000000      -0.01999471
2
Properties=species:S:1:pos:R:3:forces:R:3 energy=-1.3098894940656878 pbc="F F F"
F        0.00000000       0.00000000       0.00000000       0.00000000       0.00000000       0.02688902
F        0.00000000       0.00000000       3.17818182       0.00000000       0.00000000      -0.02688902
2
Properties=species:S:1:pos:R:3:forces:R:3 energy=-1.3081132930954593 pbc="F F F"
F        0.00000000       0.00000000       0.00000000       0.00000000       0.00000000       0.03352265
F        0.00000000       0.00000000       3.23696970       0.00000000       0.00000000      -0.03352265
2
Properties=species:S:1:pos:R:3:forces:R:3 energy=-1.3059455698508513 pbc="F F F"
F        0.00000000       0.00000000       0.00000000       0.00000000       0.00000000       0.04028460
F        0.00000000       0.00000000       3.29575758       0.00000000       0.00000000      -0.04028460
2
Properties=species:S:1:pos:R:3:forces:R:3 energy=-1.303366320928062 pbc="F F F"
F        0.00000000       0.00000000       0.00000000       0.00000000       0.00000000       0.04758025
F        0.00000000       0.00000000       3.35454545       0.00000000       0.00000000      -0.04758025
2
Properties=species:S:1:pos:R:3:forces:R:3 energy=-1.3003333492265816 pbc="F F F"
F        0.00000000       0.00000000       0.00000000       0.00000000       0.00000000       0.05578328
F        0.00000000       0.00000000       3.41333333       0.00000000       0.00000000      -0.05578328
2
Properties=species:S:1:pos:R:3:forces:R:3 energy=-1.296784167338047 pbc="F F F"
F        0.00000000       0.00000000       0.00000000       0.00000000       0.00000000       0.06517343
F        0.00000000       0.00000000       3.47212121       0.00000000       0.00000000      -0.06517343
2
Properties=species:S:1:pos:R:3:forces:R:3 energy=-1.292644792107181 pbc="F F F"
F        0.00000000       0.00000000       0.00000000       0.00000000       0.00000000       0.07586488
F        0.00000000       0.00000000       3.53090909       0.00000000       0.00000000      -0.07586488
2
Properties=species:S:1:pos:R:3:forces:R:3 energy=-1.2878404786155626 pbc="F F F"
F        0.00000000       0.00000000       0.00000000       0.00000000       0.00000000       0.08775267
F        0.00000000       0.00000000       3.58969697       0.00000000       0.00000000      -0.08775267
2
Properties=species:S:1:pos:R:3:forces:R:3 energy=-1.2823105074792307 pbc="F F F"
F        0.00000000       0.00000000       0.00000000       0.00000000       0.00000000       0.10048512
F        0.00000000       0.00000000       3.64848485       0.00000000       0.00000000      -0.10048512
2
Properties=species:S:1:pos:R:3:forces:R:3 energy=-1.2760208307348324 pbc="F F F"
F        0.00000000       0.00000000       0.00000000       0.00000000       0.00000000       0.11348455
F        0.00000000       0.00000000       3.70727273       0.00000000       0.00000000      -0.11348455
2
Properties=species:S:1:pos:R:3:forces:R:3 energy=-1.2689767214875598 pbc="F F F"
F        0.00000000       0.00000000       0.00000000       0.00000000       0.00000000       0.12600988
F        0.00000000       0.00000000       3.76606061       0.00000000       0.00000000      -0.12600988
2
Properties=species:S:1:pos:R:3:forces:R:3 energy=-1.261229946465399 pbc="F F F"
F        0.00000000       0.00000000       0.00000000       0.00000000       0.00000000       0.13726847
F        0.00000000       0.00000000       3.82484848       0.00000000       0.00000000      -0.13726847
2
Properties=species:S:1:pos:R:3:forces:R:3 energy=-1.2528760376687162 pbc="F F F"
F        0.00000000       0.00000000       0.00000000       0.00000000       0.00000000       0.14654766
F        0.00000000       0.00000000       3.88363636       0.00000000       0.00000000      -0.14654766
2
Properties=species:S:1:pos:R:3:forces:R:3 energy=-1.244048358535284 pbc="F F F"
F        0.00000000       0.00000000       0.00000000       0.00000000       0.00000000       0.15333501
F        0.00000000       0.00000000       3.94242424       0.00000000       0.00000000      -0.15333501
2
Properties=species:S:1:pos:R:3:forces:R:3 energy=-1.2349011849326763 pbc="F F F"
F        0.00000000       0.00000000       0.00000000       0.00000000       0.00000000       0.15740547
F        0.00000000       0.00000000       4.00121212       0.00000000       0.00000000      -0.15740547
2
Properties=species:S:1:pos:R:3:forces:R:3 energy=-1.2255935113058447 pbc="F F F"
F        0.00000000       0.00000000       0.00000000       0.00000000       0.00000000       0.15883295
F        0.00000000       0.00000000       4.06000000       0.00000000       0.00000000      -0.15883295
2
Properties=species:S:1:pos:R:3:forces:R:3 energy=-1.2162720198848074 pbc="F F F"
F        0.00000000       0.00000000       0.00000000       0.00000000       0.00000000       0.15794018
F        0.00000000       0.00000000       4.11878788       0.00000000       0.00000000      -0.15794018
2
Properties=species:S:1:pos:R:3:forces:R:3 energy=-1.207059645601345 pbc="F F F"
F        0.00000000       0.00000000       0.00000000       0.00000000       0.00000000       0.15519930
F        0.00000000       0.00000000       4.17757576       0.00000000       0.00000000      -0.15519930
2
Properties=species:S:1:pos:R:3:forces:R:3 energy=-1.1980503421656277 pbc="F F F"
F        0.00000000       0.00000000       0.00000000       0.00000000       0.00000000       0.15112735
F        0.00000000       0.00000000       4.23636364       0.00000000       0.00000000      -0.15112735
2
Properties=species:S:1:pos:R:3:forces:R:3 energy=-1.1893071811522218 pbc="F F F"
F        0.00000000       0.00000000       0.00000000       0.00000000       0.00000000       0.14620298
F        0.00000000       0.00000000       4.29515152       0.00000000       0.00000000      -0.14620298
2
Properties=species:S:1:pos:R:3:forces:R:3 energy=-1.1808695163378 pbc="F F F"
F        0.00000000       0.00000000       0.00000000       0.00000000       0.00000000       0.14082575
F        0.00000000       0.00000000       4.35393939       0.00000000       0.00000000      -0.14082575
2
Properties=species:S:1:pos:R:3:forces:R:3 energy=-1.1727525046861063 pbc="F F F"
F        0.00000000       0.00000000       0.00000000       0.00000000       0.00000000       0.13530697
F        0.00000000       0.00000000       4.41272727       0.00000000       0.00000000      -0.13530697
2
Properties=species:S:1:pos:R:3:forces:R:3 energy=-1.164958796084926 pbc="F F F"
F        0.00000000       0.00000000       0.00000000       0.00000000       0.00000000       0.12985414
F        0.00000000       0.00000000       4.47151515       0.00000000       0.00000000      -0.12985414
2
Properties=species:S:1:pos:R:3:forces:R:3 energy=-1.157481518973522 pbc="F F F"
F        0.00000000       0.00000000       0.00000000       0.00000000       0.00000000       0.12455726
F        0.00000000       0.00000000       4.53030303       0.00000000       0.00000000      -0.12455726
2
Properties=species:S:1:pos:R:3:forces:R:3 energy=-1.1503120257786326 pbc="F F F"
F        0.00000000       0.00000000       0.00000000       0.00000000       0.00000000       0.11935586
F        0.00000000       0.00000000       4.58909091       0.00000000       0.00000000      -0.11935586
2
Properties=species:S:1:pos:R:3:forces:R:3 energy=-1.143450864178386 pbc="F F F"
F        0.00000000       0.00000000       0.00000000       0.00000000       0.00000000       0.11402283
F        0.00000000       0.00000000       4.64787879       0.00000000       0.00000000      -0.11402283
2
Properties=species:S:1:pos:R:3:forces:R:3 energy=-1.1369151695631685 pbc="F F F"
F        0.00000000       0.00000000       0.00000000       0.00000000       0.00000000       0.10819940
F        0.00000000       0.00000000       4.70666667       0.00000000       0.00000000      -0.10819940
2
Properties=species:S:1:pos:R:3:forces:R:3 energy=-1.1307464116100592 pbc="F F F"
F        0.00000000       0.00000000       0.00000000       0.00000000       0.00000000       0.10149263
F        0.00000000       0.00000000       4.76545455       0.00000000       0.00000000      -0.10149263
2
Properties=species:S:1:pos:R:3:forces:R:3 energy=-1.1250047927331492 pbc="F F F"
F        0.00000000       0.00000000       0.00000000       0.00000000       0.00000000       0.09364342
F        0.00000000       0.00000000       4.82424242       0.00000000       0.00000000      -0.09364342
2
Properties=species:S:1:pos:R:3:forces:R:3 energy=-1.1197580419153519 pbc="F F F"
F        0.00000000       0.00000000       0.00000000       0.00000000       0.00000000       0.08471566
F        0.00000000       0.00000000       4.88303030       0.00000000       0.00000000      -0.08471566
2
Properties=species:S:1:pos:R:3:forces:R:3 energy=-1.115054949008691 pbc="F F F"
F        0.00000000       0.00000000       0.00000000       0.00000000       0.00000000       0.07526172
F        0.00000000       0.00000000       4.94181818       0.00000000       0.00000000      -0.07526172
2
Properties=species:S:1:pos:R:3:forces:R:3 energy=-1.1108975885738586 pbc="F F F"
F        0.00000000       0.00000000       0.00000000       0.00000000       0.00000000       0.06638954
F        0.00000000       0.00000000       5.00060606       0.00000000       0.00000000      -0.06638954
2
Properties=species:S:1:pos:R:3:forces:R:3 energy=-1.1072069878275617 pbc="F F F"
F        0.00000000       0.00000000       0.00000000       0.00000000       0.00000000       0.05966910
F        0.00000000       0.00000000       5.05939394       0.00000000       0.00000000      -0.05966910
2
Properties=species:S:1:pos:R:3:forces:R:3 energy=-1.103805839191905 pbc="F F F"
F        0.00000000       0.00000000       0.00000000       0.00000000       0.00000000       0.05681155
F        0.00000000       0.00000000       5.11818182       0.00000000       0.00000000      -0.05681155
2
Properties=species:S:1:pos:R:3:forces:R:3 energy=-1.100426844400191 pbc="F F F"
F        0.00000000       0.00000000       0.00000000       0.00000000       0.00000000       0.05904692
F        0.00000000       0.00000000       5.17696970       0.00000000       0.00000000      -0.05904692
2
Properties=species:S:1:pos:R:3:forces:R:3 energy=-1.0967656432729878 pbc="F F F"
F        0.00000000       0.00000000       0.00000000       0.00000000       0.00000000       0.06621218
F        0.00000000       0.00000000       5.23575758       0.00000000       0.00000000      -0.06621218
2
Properties=species:S:1:pos:R:3:forces:R:3 energy=-1.092592272844697 pbc="F F F"
F        0.00000000       0.00000000       0.00000000       0.00000000       0.00000000       0.07584311
F        0.00000000       0.00000000       5.29454545       0.00000000       0.00000000      -0.07584311
2
Properties=species:S:1:pos:R:3:forces:R:3 energy=-1.0878901653951707 pbc="F F F"
F        0.00000000       0.00000000       0.00000000       0.00000000       0.00000000       0.08334401
F        0.00000000       0.00000000       5.35333333       0.00000000       0.00000000      -0.08334401
2
Properties=species:S:1:pos:R:3:forces:R:3 energy=-1.082899538651218 pbc="F F F"
F        0.00000000       0.00000000       0.00000000       0.00000000       0.00000000       0.08570254
F        0.00000000       0.00000000       5.41212121       0.00000000       0.00000000      -0.08570254
2
Properties=species:S:1:pos:R:3:forces:R:3 energy=-1.0778126975354745 pbc="F F F"
F        0.00000000       0.00000000       0.00000000       0.00000000       0.00000000       0.08828680
F        0.00000000       0.00000000       5.47090909       0.00000000       0.00000000      -0.08828680
2
Properties=species:S:1:pos:R:3:forces:R:3 energy=-1.0723680057670306 pbc="F F F"
F        0.00000000       0.00000000       0.00000000       0.00000000       0.00000000       0.09769132
F        0.00000000       0.00000000       5.52969697       0.00000000       0.00000000      -0.09769132
2
Properties=species:S:1:pos:R:3:forces:R:3 energy=-1.0664003936304922 pbc="F F F"
F        0.00000000       0.00000000       0.00000000       0.00000000       0.00000000       0.10359913
F        0.00000000       0.00000000       5.58848485       0.00000000       0.00000000      -0.10359913
2
Properties=species:S:1:pos:R:3:forces:R:3 energy=-1.0604037878000598 pbc="F F F"
F        0.00000000       0.00000000       0.00000000       0.00000000       0.00000000       0.09897772
F        0.00000000       0.00000000       5.64727273       0.00000000       0.00000000      -0.09897772
2
Properties=species:S:1:pos:R:3:forces:R:3 energy=-1.0548337353498731 pbc="F F F"
F        0.00000000       0.00000000       0.00000000       0.00000000       0.00000000       0.09118173
F        0.00000000       0.00000000       5.70606061       0.00000000       0.00000000      -0.09118173
2
Properties=species:S:1:pos:R:3:forces:R:3 energy=-1.0494946677829826 pbc="F F F"
F        0.00000000       0.00000000       0.00000000       0.00000000       0.00000000       0.09147777
F        0.00000000       0.00000000       5.76484848       0.00000000       0.00000000      -0.09147777
2
Properties=species:S:1:pos:R:3:forces:R:3 energy=-1.04419936718 pbc="F F F"
F        0.00000000       0.00000000       0.00000000       0.00000000       0.00000000       0.08516392
F        0.00000000       0.00000000       5.82363636       0.00000000       0.00000000      -0.08516392
2
Properties=species:S:1:pos:R:3:forces:R:3 energy=-1.040047484010507 pbc="F F F"
F        0.00000000       0.00000000       0.00000000       0.00000000       0.00000000       0.05284235
F        0.00000000       0.00000000       5.88242424       0.00000000       0.00000000      -0.05284235
2
Properties=species:S:1:pos:R:3:forces:R:3 energy=-1.0380839564690372 pbc="F F F"
F        0.00000000       0.00000000       0.00000000       0.00000000       0.00000000       0.01547858
F        0.00000000       0.00000000       5.94121212       0.00000000       0.00000000      -0.01547858
2
Properties=species:S:1:pos:R:3:forces:R:3 energy=-1.0377739652418982 pbc="F F F"
F        0.00000000       0.00000000       0.00000000       0.00000000       0.00000000       0.00013400
F        0.00000000       0.00000000       6.00000000       0.00000000       0.00000000      -0.00013400
