2
Properties=species:S:1:pos:R:3:forces:R:3 energy=13593.403381317059 pbc="F F F"
Ho       0.00000000       0.00000000       0.00000000       0.00000000       0.00000000 -224150.78125000
Ho       0.00000000       0.00000000       0.18000000       0.00000000       0.00000000  224150.78125000
2
Properties=species:S:1:pos:R:3:forces:R:3 energy=5721.07818600456 pbc="F F F"
Ho       0.00000000       0.00000000       0.00000000       0.00000000       0.00000000  -75130.32812500
Ho       0.00000000       0.00000000       0.23878788       0.00000000       0.00000000   75130.32812500
2
Properties=species:S:1:pos:R:3:forces:R:3 energy=2862.261535613935 pbc="F F F"
Ho       0.00000000       0.00000000       0.00000000       0.00000000       0.00000000  -30116.20507812
Ho       0.00000000       0.00000000       0.29757576       0.00000000       0.00000000   30116.20507812
2
Properties=species:S:1:pos:R:3:forces:R:3 energy=1639.3364867858097 pbc="F F F"
Ho       0.00000000       0.00000000       0.00000000       0.00000000       0.00000000  -14065.43554688
Ho       0.00000000       0.00000000       0.35636364       0.00000000       0.00000000   14065.43554688
2
Properties=species:S:1:pos:R:3:forces:R:3 energy=1021.3831786930123 pbc="F F F"
Ho       0.00000000       0.00000000       0.00000000       0.00000000       0.00000000   -7906.07812500
Ho       0.00000000       0.00000000       0.41515152       0.00000000       0.00000000    7906.07812500
2
Properties=species:S:1:pos:R:3:forces:R:3 energy=640.1766967594185 pbc="F F F"
Ho       0.00000000       0.00000000       0.00000000       0.00000000       0.00000000   -5401.73437500
Ho       0.00000000       0.00000000       0.47393939       0.00000000       0.00000000    5401.73437500
2
Properties=species:S:1:pos:R:3:forces:R:3 energy=365.1325073189648 pbc="F F F"
Ho       0.00000000       0.00000000       0.00000000       0.00000000       0.00000000   -4015.85937500
Ho       0.00000000       0.00000000       0.53272727       0.00000000       0.00000000    4015.85937500
2
Properties=species:S:1:pos:R:3:forces:R:3 energy=169.5922699175496 pbc="F F F"
Ho       0.00000000       0.00000000       0.00000000       0.00000000       0.00000000   -2548.46289062
Ho       0.00000000       0.00000000       0.59151515       0.00000000       0.00000000    2548.46289062
2
Properties=species:S:1:pos:R:3:forces:R:3 energy=35.58115775509998 pbc="F F F"
Ho       0.00000000       0.00000000       0.00000000       0.00000000       0.00000000   -1628.15087891
Ho       0.00000000       0.00000000       0.65030303       0.00000000       0.00000000    1628.15087891
2
Properties=species:S:1:pos:R:3:forces:R:3 energy=2.7453168779809625 pbc="F F F"
Ho       0.00000000       0.00000000       0.00000000       0.00000000       0.00000000     412.56524658
Ho       0.00000000       0.00000000       0.70909091       0.00000000       0.00000000    -412.56524658
2
Properties=species:S:1:pos:R:3:forces:R:3 energy=55.6076509923365 pbc="F F F"
Ho       0.00000000       0.00000000       0.00000000       0.00000000       0.00000000    1523.14770508
Ho       0.00000000       0.00000000       0.76787879       0.00000000       0.00000000   -1523.14770508
2
Properties=species:S:1:pos:R:3:forces:R:3 energy=150.18260232893826 pbc="F F F"
Ho       0.00000000       0.00000000       0.00000000       0.00000000       0.00000000     922.69531250
Ho       0.00000000       0.00000000       0.82666667       0.00000000       0.00000000    -922.69531250
2
Properties=species:S:1:pos:R:3:forces:R:3 energy=181.07803407557614 pbc="F F F"
Ho       0.00000000       0.00000000       0.00000000       0.00000000       0.00000000      38.37908554
Ho       0.00000000       0.00000000       0.88545455       0.00000000       0.00000000     -38.37908554
2
Properties=species:S:1:pos:R:3:forces:R:3 energy=170.05976962185053 pbc="F F F"
Ho       0.00000000       0.00000000       0.00000000       0.00000000       0.00000000    -368.27264404
Ho       0.00000000       0.00000000       0.94424242       0.00000000       0.00000000     368.27264404
2
Properties=species:S:1:pos:R:3:forces:R:3 energy=144.30877823138528 pbc="F F F"
Ho       0.00000000       0.00000000       0.00000000       0.00000000       0.00000000    -464.67681885
Ho       0.00000000       0.00000000       1.00303030       0.00000000       0.00000000     464.67681885
2
Properties=species:S:1:pos:R:3:forces:R:3 energy=119.6991444148505 pbc="F F F"
Ho       0.00000000       0.00000000       0.00000000       0.00000000       0.00000000    -327.34164429
Ho       0.00000000       0.00000000       1.06181818       0.00000000       0.00000000     327.34164429
2
Properties=species:S:1:pos:R:3:forces:R:3 energy=103.92075622341962 pbc="F F F"
Ho       0.00000000       0.00000000       0.00000000       0.00000000       0.00000000    -340.53372192
Ho       0.00000000       0.00000000       1.12060606       0.00000000       0.00000000     340.53372192
2
Properties=species:S:1:pos:R:3:forces:R:3 energy=84.06244272296254 pbc="F F F"
Ho       0.00000000       0.00000000       0.00000000       0.00000000       0.00000000    -305.87597656
Ho       0.00000000       0.00000000       1.17939394       0.00000000       0.00000000     305.87597656
2
Properties=species:S:1:pos:R:3:forces:R:3 energy=68.60655721262754 pbc="F F F"
Ho       0.00000000       0.00000000       0.00000000       0.00000000       0.00000000    -223.66290283
Ho       0.00000000       0.00000000       1.23818182       0.00000000       0.00000000     223.66290283
2
Properties=species:S:1:pos:R:3:forces:R:3 energy=57.01177511494993 pbc="F F F"
Ho       0.00000000       0.00000000       0.00000000       0.00000000       0.00000000    -176.21817017
Ho       0.00000000       0.00000000       1.29696970       0.00000000       0.00000000     176.21817017
2
Properties=species:S:1:pos:R:3:forces:R:3 energy=47.47600301276938 pbc="F F F"
Ho       0.00000000       0.00000000       0.00000000       0.00000000       0.00000000    -150.15135193
Ho       0.00000000       0.00000000       1.35575758       0.00000000       0.00000000     150.15135193
2
Properties=species:S:1:pos:R:3:forces:R:3 energy=39.24965300743217 pbc="F F F"
Ho       0.00000000       0.00000000       0.00000000       0.00000000       0.00000000    -129.94268799
Ho       0.00000000       0.00000000       1.41454545       0.00000000       0.00000000     129.94268799
2
Properties=species:S:1:pos:R:3:forces:R:3 energy=32.1836925821926 pbc="F F F"
Ho       0.00000000       0.00000000       0.00000000       0.00000000       0.00000000    -110.75483704
Ho       0.00000000       0.00000000       1.47333333       0.00000000       0.00000000     110.75483704
2
Properties=species:S:1:pos:R:3:forces:R:3 energy=26.15867798300221 pbc="F F F"
Ho       0.00000000       0.00000000       0.00000000       0.00000000       0.00000000     -94.92583466
Ho       0.00000000       0.00000000       1.53212121       0.00000000       0.00000000      94.92583466
2
Properties=species:S:1:pos:R:3:forces:R:3 energy=20.96064870166218 pbc="F F F"
Ho       0.00000000       0.00000000       0.00000000       0.00000000       0.00000000     -82.15899658
Ho       0.00000000       0.00000000       1.59090909       0.00000000       0.00000000      82.15899658
2
Properties=species:S:1:pos:R:3:forces:R:3 energy=16.495208299041447 pbc="F F F"
Ho       0.00000000       0.00000000       0.00000000       0.00000000       0.00000000     -69.71316528
Ho       0.00000000       0.00000000       1.64969697       0.00000000       0.00000000      69.71316528
2
Properties=species:S:1:pos:R:3:forces:R:3 energy=12.758058767736584 pbc="F F F"
Ho       0.00000000       0.00000000       0.00000000       0.00000000       0.00000000     -57.61632538
Ho       0.00000000       0.00000000       1.70848485       0.00000000       0.00000000      57.61632538
2
Properties=species:S:1:pos:R:3:forces:R:3 energy=9.686165286525418 pbc="F F F"
Ho       0.00000000       0.00000000       0.00000000       0.00000000       0.00000000     -47.24278641
Ho       0.00000000       0.00000000       1.76727273       0.00000000       0.00000000      47.24278641
2
Properties=species:S:1:pos:R:3:forces:R:3 energy=7.163376299141336 pbc="F F F"
Ho       0.00000000       0.00000000       0.00000000       0.00000000       0.00000000     -38.88488007
Ho       0.00000000       0.00000000       1.82606061       0.00000000       0.00000000      38.88488007
2
Properties=species:S:1:pos:R:3:forces:R:3 energy=5.085739161664751 pbc="F F F"
Ho       0.00000000       0.00000000       0.00000000       0.00000000       0.00000000     -31.98241043
Ho       0.00000000       0.00000000       1.88484848       0.00000000       0.00000000      31.98241043
2
Properties=species:S:1:pos:R:3:forces:R:3 energy=3.3865720779105666 pbc="F F F"
Ho       0.00000000       0.00000000       0.00000000       0.00000000       0.00000000     -25.93260193
Ho       0.00000000       0.00000000       1.94363636       0.00000000       0.00000000      25.93260193
2
Properties=species:S:1:pos:R:3:forces:R:3 energy=2.0255261449321647 pbc="F F F"
Ho       0.00000000       0.00000000       0.00000000       0.00000000       0.00000000     -20.46330070
Ho       0.00000000       0.00000000       2.00242424       0.00000000       0.00000000      20.46330070
2
Properties=species:S:1:pos:R:3:forces:R:3 energy=0.9690292821465977 pbc="F F F"
Ho       0.00000000       0.00000000       0.00000000       0.00000000       0.00000000     -15.58603573
Ho       0.00000000       0.00000000       2.06121212       0.00000000       0.00000000      15.58603573
2
Properties=species:S:1:pos:R:3:forces:R:3 energy=0.1793706919368031 pbc="F F F"
Ho       0.00000000       0.00000000       0.00000000       0.00000000       0.00000000     -11.40367126
Ho       0.00000000       0.00000000       2.12000000       0.00000000       0.00000000      11.40367126
2
Properties=species:S:1:pos:R:3:forces:R:3 energy=-0.3874517494231703 pbc="F F F"
Ho       0.00000000       0.00000000       0.00000000       0.00000000       0.00000000      -8.02003002
Ho       0.00000000       0.00000000       2.17878788       0.00000000       0.00000000       8.02003002
2
Properties=species:S:1:pos:R:3:forces:R:3 energy=-0.7803737829074013 pbc="F F F"
Ho       0.00000000       0.00000000       0.00000000       0.00000000       0.00000000      -5.48900318
Ho       0.00000000       0.00000000       2.23757576       0.00000000       0.00000000       5.48900318
2
Properties=species:S:1:pos:R:3:forces:R:3 energy=-1.048721261890024 pbc="F F F"
Ho       0.00000000       0.00000000       0.00000000       0.00000000       0.00000000      -3.76672769
Ho       0.00000000       0.00000000       2.29636364       0.00000000       0.00000000       3.76672769
2
Properties=species:S:1:pos:R:3:forces:R:3 energy=-1.23675224118626 pbc="F F F"
Ho       0.00000000       0.00000000       0.00000000       0.00000000       0.00000000      -2.73233938
Ho       0.00000000       0.00000000       2.35515152       0.00000000       0.00000000       2.73233938
2
Properties=species:S:1:pos:R:3:forces:R:3 energy=-1.3803032353510172 pbc="F F F"
Ho       0.00000000       0.00000000       0.00000000       0.00000000       0.00000000      -2.22374415
Ho       0.00000000       0.00000000       2.41393939       0.00000000       0.00000000       2.22374415
2
Properties=species:S:1:pos:R:3:forces:R:3 energy=-1.5048112131994391 pbc="F F F"
Ho       0.00000000       0.00000000       0.00000000       0.00000000       0.00000000      -2.05199051
Ho       0.00000000       0.00000000       2.47272727       0.00000000       0.00000000       2.05199051
2
Properties=species:S:1:pos:R:3:forces:R:3 energy=-1.624497564702469 pbc="F F F"
Ho       0.00000000       0.00000000       0.00000000       0.00000000       0.00000000      -2.03143215
Ho       0.00000000       0.00000000       2.53151515       0.00000000       0.00000000       2.03143215
2
Properties=species:S:1:pos:R:3:forces:R:3 energy=-1.7438324359735278 pbc="F F F"
Ho       0.00000000       0.00000000       0.00000000       0.00000000       0.00000000      -2.02209210
Ho       0.00000000       0.00000000       2.59030303       0.00000000       0.00000000       2.02209210
2
Properties=species:S:1:pos:R:3:forces:R:3 energy=-1.8609564977085866 pbc="F F F"
Ho       0.00000000       0.00000000       0.00000000       0.00000000       0.00000000      -1.94883645
Ho       0.00000000       0.00000000       2.64909091       0.00000000       0.00000000       1.94883645
2
Properties=species:S:1:pos:R:3:forces:R:3 energy=-1.9712880000442796 pbc="F F F"
Ho       0.00000000       0.00000000       0.00000000       0.00000000       0.00000000      -1.79091382
Ho       0.00000000       0.00000000       2.70787879       0.00000000       0.00000000       1.79091382
2
Properties=species:S:1:pos:R:3:forces:R:3 energy=-2.0700848617904875 pbc="F F F"
Ho       0.00000000       0.00000000       0.00000000       0.00000000       0.00000000      -1.55986941
Ho       0.00000000       0.00000000       2.76666667       0.00000000       0.00000000       1.55986941
2
Properties=species:S:1:pos:R:3:forces:R:3 energy=-2.1537381672496956 pbc="F F F"
Ho       0.00000000       0.00000000       0.00000000       0.00000000       0.00000000      -1.28018582
Ho       0.00000000       0.00000000       2.82545455       0.00000000       0.00000000       1.28018582
2
Properties=species:S:1:pos:R:3:forces:R:3 energy=-2.2201487788729524 pbc="F F F"
Ho       0.00000000       0.00000000       0.00000000       0.00000000       0.00000000      -0.97714472
Ho       0.00000000       0.00000000       2.88424242       0.00000000       0.00000000       0.97714472
2
Properties=species:S:1:pos:R:3:forces:R:3 energy=-2.2685776357347724 pbc="F F F"
Ho       0.00000000       0.00000000       0.00000000       0.00000000       0.00000000      -0.67144817
Ho       0.00000000       0.00000000       2.94303030       0.00000000       0.00000000       0.67144817
2
Properties=species:S:1:pos:R:3:forces:R:3 energy=-2.299345145718755 pbc="F F F"
Ho       0.00000000       0.00000000       0.00000000       0.00000000       0.00000000      -0.37835959
Ho       0.00000000       0.00000000       3.00181818       0.00000000       0.00000000       0.37835959
2
Properties=species:S:1:pos:R:3:forces:R:3 energy=-2.313527151144075 pbc="F F F"
Ho       0.00000000       0.00000000       0.00000000       0.00000000       0.00000000      -0.10884814
Ho       0.00000000       0.00000000       3.06060606       0.00000000       0.00000000       0.10884814
2
Properties=species:S:1:pos:R:3:forces:R:3 energy=-2.3127546318164596 pbc="F F F"
Ho       0.00000000       0.00000000       0.00000000       0.00000000       0.00000000       0.12957861
Ho       0.00000000       0.00000000       3.11939394       0.00000000       0.00000000      -0.12957861
2
Properties=species:S:1:pos:R:3:forces:R:3 energy=-2.298982276615613 pbc="F F F"
Ho       0.00000000       0.00000000       0.00000000       0.00000000       0.00000000       0.33293709
Ho       0.00000000       0.00000000       3.17818182       0.00000000       0.00000000      -0.33293709
2
Properties=species:S:1:pos:R:3:forces:R:3 energy=-2.274306029925762 pbc="F F F"
Ho       0.00000000       0.00000000       0.00000000       0.00000000       0.00000000       0.50082660
Ho       0.00000000       0.00000000       3.23696970       0.00000000       0.00000000      -0.50082660
2
Properties=species:S:1:pos:R:3:forces:R:3 energy=-2.2407439722901703 pbc="F F F"
Ho       0.00000000       0.00000000       0.00000000       0.00000000       0.00000000       0.63580608
Ho       0.00000000       0.00000000       3.29575758       0.00000000       0.00000000      -0.63580608
2
Properties=species:S:1:pos:R:3:forces:R:3 energy=-2.2001143007837953 pbc="F F F"
Ho       0.00000000       0.00000000       0.00000000       0.00000000       0.00000000       0.74202865
Ho       0.00000000       0.00000000       3.35454545       0.00000000       0.00000000      -0.74202865
2
Properties=species:S:1:pos:R:3:forces:R:3 energy=-2.15397734261341 pbc="F F F"
Ho       0.00000000       0.00000000       0.00000000       0.00000000       0.00000000       0.82385451
Ho       0.00000000       0.00000000       3.41333333       0.00000000       0.00000000      -0.82385451
2
Properties=species:S:1:pos:R:3:forces:R:3 energy=-2.103654265808373 pbc="F F F"
Ho       0.00000000       0.00000000       0.00000000       0.00000000       0.00000000       0.88497627
Ho       0.00000000       0.00000000       3.47212121       0.00000000       0.00000000      -0.88497627
2
Properties=species:S:1:pos:R:3:forces:R:3 energy=-2.050276292482324 pbc="F F F"
Ho       0.00000000       0.00000000       0.00000000       0.00000000       0.00000000       0.92816532
Ho       0.00000000       0.00000000       3.53090909       0.00000000       0.00000000      -0.92816532
2
Properties=species:S:1:pos:R:3:forces:R:3 energy=-1.9948361235544476 pbc="F F F"
Ho       0.00000000       0.00000000       0.00000000       0.00000000       0.00000000       0.95544297
Ho       0.00000000       0.00000000       3.58969697       0.00000000       0.00000000      -0.95544297
2
Properties=species:S:1:pos:R:3:forces:R:3 energy=-1.9382190828843102 pbc="F F F"
Ho       0.00000000       0.00000000       0.00000000       0.00000000       0.00000000       0.96842194
Ho       0.00000000       0.00000000       3.64848485       0.00000000       0.00000000      -0.96842194
2
Properties=species:S:1:pos:R:3:forces:R:3 energy=-1.8812227182805044 pbc="F F F"
Ho       0.00000000       0.00000000       0.00000000       0.00000000       0.00000000       0.96865600
Ho       0.00000000       0.00000000       3.70727273       0.00000000       0.00000000      -0.96865600
2
Properties=species:S:1:pos:R:3:forces:R:3 energy=-1.8245441273020888 pbc="F F F"
Ho       0.00000000       0.00000000       0.00000000       0.00000000       0.00000000       0.95788080
Ho       0.00000000       0.00000000       3.76606061       0.00000000       0.00000000      -0.95788080
2
Properties=species:S:1:pos:R:3:forces:R:3 energy=-1.7687740474792657 pbc="F F F"
Ho       0.00000000       0.00000000       0.00000000       0.00000000       0.00000000       0.93818539
Ho       0.00000000       0.00000000       3.82484848       0.00000000       0.00000000      -0.93818539
2
Properties=species:S:1:pos:R:3:forces:R:3 energy=-1.7143642436531983 pbc="F F F"
Ho       0.00000000       0.00000000       0.00000000       0.00000000       0.00000000       0.91199344
Ho       0.00000000       0.00000000       3.88363636       0.00000000       0.00000000      -0.91199344
2
Properties=species:S:1:pos:R:3:forces:R:3 energy=-1.6616212584077998 pbc="F F F"
Ho       0.00000000       0.00000000       0.00000000       0.00000000       0.00000000       0.88193798
Ho       0.00000000       0.00000000       3.94242424       0.00000000       0.00000000      -0.88193798
2
Properties=species:S:1:pos:R:3:forces:R:3 energy=-1.6106962424342084 pbc="F F F"
Ho       0.00000000       0.00000000       0.00000000       0.00000000       0.00000000       0.85055667
Ho       0.00000000       0.00000000       4.00121212       0.00000000       0.00000000      -0.85055667
2
Properties=species:S:1:pos:R:3:forces:R:3 energy=-1.5616013178816759 pbc="F F F"
Ho       0.00000000       0.00000000       0.00000000       0.00000000       0.00000000       0.81995636
Ho       0.00000000       0.00000000       4.06000000       0.00000000       0.00000000      -0.81995636
2
Properties=species:S:1:pos:R:3:forces:R:3 energy=-1.5142452346064328 pbc="F F F"
Ho       0.00000000       0.00000000       0.00000000       0.00000000       0.00000000       0.79158163
Ho       0.00000000       0.00000000       4.11878788       0.00000000       0.00000000      -0.79158163
2
Properties=species:S:1:pos:R:3:forces:R:3 energy=-1.4684723020921695 pbc="F F F"
Ho       0.00000000       0.00000000       0.00000000       0.00000000       0.00000000       0.76612520
Ho       0.00000000       0.00000000       4.17757576       0.00000000       0.00000000      -0.76612520
2
Properties=species:S:1:pos:R:3:forces:R:3 energy=-1.4241086489900259 pbc="F F F"
Ho       0.00000000       0.00000000       0.00000000       0.00000000       0.00000000       0.74360824
Ho       0.00000000       0.00000000       4.23636364       0.00000000       0.00000000      -0.74360824
2
Properties=species:S:1:pos:R:3:forces:R:3 energy=-1.380992659501292 pbc="F F F"
Ho       0.00000000       0.00000000       0.00000000       0.00000000       0.00000000       0.72356582
Ho       0.00000000       0.00000000       4.29515152       0.00000000       0.00000000      -0.72356582
2
Properties=species:S:1:pos:R:3:forces:R:3 energy=-1.3390012005890624 pbc="F F F"
Ho       0.00000000       0.00000000       0.00000000       0.00000000       0.00000000       0.70527607
Ho       0.00000000       0.00000000       4.35393939       0.00000000       0.00000000      -0.70527607
2
Properties=species:S:1:pos:R:3:forces:R:3 energy=-1.2980519554788716 pbc="F F F"
Ho       0.00000000       0.00000000       0.00000000       0.00000000       0.00000000       0.68793339
Ho       0.00000000       0.00000000       4.41272727       0.00000000       0.00000000      -0.68793339
2
Properties=species:S:1:pos:R:3:forces:R:3 energy=-1.258112070083986 pbc="F F F"
Ho       0.00000000       0.00000000       0.00000000       0.00000000       0.00000000       0.67080629
Ho       0.00000000       0.00000000       4.47151515       0.00000000       0.00000000      -0.67080629
2
Properties=species:S:1:pos:R:3:forces:R:3 energy=-1.2191874316729399 pbc="F F F"
Ho       0.00000000       0.00000000       0.00000000       0.00000000       0.00000000       0.65330666
Ho       0.00000000       0.00000000       4.53030303       0.00000000       0.00000000      -0.65330666
2
Properties=species:S:1:pos:R:3:forces:R:3 energy=-1.181315333746429 pbc="F F F"
Ho       0.00000000       0.00000000       0.00000000       0.00000000       0.00000000       0.63500190
Ho       0.00000000       0.00000000       4.58909091       0.00000000       0.00000000      -0.63500190
2
Properties=species:S:1:pos:R:3:forces:R:3 energy=-1.1445495443658498 pbc="F F F"
Ho       0.00000000       0.00000000       0.00000000       0.00000000       0.00000000       0.61560202
Ho       0.00000000       0.00000000       4.64787879       0.00000000       0.00000000      -0.61560202
2
Properties=species:S:1:pos:R:3:forces:R:3 energy=-1.1089599928749383 pbc="F F F"
Ho       0.00000000       0.00000000       0.00000000       0.00000000       0.00000000       0.59490985
Ho       0.00000000       0.00000000       4.70666667       0.00000000       0.00000000      -0.59490985
2
Properties=species:S:1:pos:R:3:forces:R:3 energy=-1.0746296641225985 pbc="F F F"
Ho       0.00000000       0.00000000       0.00000000       0.00000000       0.00000000       0.57280618
Ho       0.00000000       0.00000000       4.76545455       0.00000000       0.00000000      -0.57280618
2
Properties=species:S:1:pos:R:3:forces:R:3 energy=-1.0416399204651536 pbc="F F F"
Ho       0.00000000       0.00000000       0.00000000       0.00000000       0.00000000       0.54925531
Ho       0.00000000       0.00000000       4.82424242       0.00000000       0.00000000      -0.54925531
2
Properties=species:S:1:pos:R:3:forces:R:3 energy=-1.0100777265996512 pbc="F F F"
Ho       0.00000000       0.00000000       0.00000000       0.00000000       0.00000000       0.52441996
Ho       0.00000000       0.00000000       4.88303030       0.00000000       0.00000000      -0.52441996
2
Properties=species:S:1:pos:R:3:forces:R:3 energy=-0.979998001019145 pbc="F F F"
Ho       0.00000000       0.00000000       0.00000000       0.00000000       0.00000000       0.49876058
Ho       0.00000000       0.00000000       4.94181818       0.00000000       0.00000000      -0.49876058
2
Properties=species:S:1:pos:R:3:forces:R:3 energy=-0.9514324844334774 pbc="F F F"
Ho       0.00000000       0.00000000       0.00000000       0.00000000       0.00000000       0.47312590
Ho       0.00000000       0.00000000       5.00060606       0.00000000       0.00000000      -0.47312590
2
Properties=species:S:1:pos:R:3:forces:R:3 energy=-0.9243455891505881 pbc="F F F"
Ho       0.00000000       0.00000000       0.00000000       0.00000000       0.00000000       0.44868761
Ho       0.00000000       0.00000000       5.05939394       0.00000000       0.00000000      -0.44868761
2
Properties=species:S:1:pos:R:3:forces:R:3 energy=-0.8986311159013005 pbc="F F F"
Ho       0.00000000       0.00000000       0.00000000       0.00000000       0.00000000       0.42659339
Ho       0.00000000       0.00000000       5.11818182       0.00000000       0.00000000      -0.42659339
2
Properties=species:S:1:pos:R:3:forces:R:3 energy=-0.874134053884176 pbc="F F F"
Ho       0.00000000       0.00000000       0.00000000       0.00000000       0.00000000       0.40730223
Ho       0.00000000       0.00000000       5.17696970       0.00000000       0.00000000      -0.40730223
2
Properties=species:S:1:pos:R:3:forces:R:3 energy=-0.850710322458558 pbc="F F F"
Ho       0.00000000       0.00000000       0.00000000       0.00000000       0.00000000       0.38968542
Ho       0.00000000       0.00000000       5.23575758       0.00000000       0.00000000      -0.38968542
2
Properties=species:S:1:pos:R:3:forces:R:3 energy=-0.8283489949284311 pbc="F F F"
Ho       0.00000000       0.00000000       0.00000000       0.00000000       0.00000000       0.37044775
Ho       0.00000000       0.00000000       5.29454545       0.00000000       0.00000000      -0.37044775
2
Properties=species:S:1:pos:R:3:forces:R:3 energy=-0.8072608546214687 pbc="F F F"
Ho       0.00000000       0.00000000       0.00000000       0.00000000       0.00000000       0.34595022
Ho       0.00000000       0.00000000       5.35333333       0.00000000       0.00000000      -0.34595022
2
Properties=species:S:1:pos:R:3:forces:R:3 energy=-0.7877253505840778 pbc="F F F"
Ho       0.00000000       0.00000000       0.00000000       0.00000000       0.00000000       0.31910875
Ho       0.00000000       0.00000000       5.41212121       0.00000000       0.00000000      -0.31910875
2
Properties=species:S:1:pos:R:3:forces:R:3 energy=-0.7695575469075282 pbc="F F F"
Ho       0.00000000       0.00000000       0.00000000       0.00000000       0.00000000       0.30110726
Ho       0.00000000       0.00000000       5.47090909       0.00000000       0.00000000      -0.30110726
2
Properties=species:S:1:pos:R:3:forces:R:3 energy=-0.7521923149966445 pbc="F F F"
Ho       0.00000000       0.00000000       0.00000000       0.00000000       0.00000000       0.28888705
Ho       0.00000000       0.00000000       5.52969697       0.00000000       0.00000000      -0.28888705
2
Properties=species:S:1:pos:R:3:forces:R:3 energy=-0.7358721959514292 pbc="F F F"
Ho       0.00000000       0.00000000       0.00000000       0.00000000       0.00000000       0.26341867
Ho       0.00000000       0.00000000       5.58848485       0.00000000       0.00000000      -0.26341867
2
Properties=species:S:1:pos:R:3:forces:R:3 energy=-0.7214402502518429 pbc="F F F"
Ho       0.00000000       0.00000000       0.00000000       0.00000000       0.00000000       0.22753602
Ho       0.00000000       0.00000000       5.64727273       0.00000000       0.00000000      -0.22753602
2
Properties=species:S:1:pos:R:3:forces:R:3 energy=-0.7088372245062454 pbc="F F F"
Ho       0.00000000       0.00000000       0.00000000       0.00000000       0.00000000       0.20620707
Ho       0.00000000       0.00000000       5.70606061       0.00000000       0.00000000      -0.20620707
2
Properties=species:S:1:pos:R:3:forces:R:3 energy=-0.6965494995671304 pbc="F F F"
Ho       0.00000000       0.00000000       0.00000000       0.00000000       0.00000000       0.21441397
Ho       0.00000000       0.00000000       5.76484848       0.00000000       0.00000000      -0.21441397
2
Properties=species:S:1:pos:R:3:forces:R:3 energy=-0.6839004629707354 pbc="F F F"
Ho       0.00000000       0.00000000       0.00000000       0.00000000       0.00000000       0.20846218
Ho       0.00000000       0.00000000       5.82363636       0.00000000       0.00000000      -0.20846218
2
Properties=species:S:1:pos:R:3:forces:R:3 energy=-0.6732637868686491 pbc="F F F"
Ho       0.00000000       0.00000000       0.00000000       0.00000000       0.00000000       0.14572592
Ho       0.00000000       0.00000000       5.88242424       0.00000000       0.00000000      -0.14572592
2
Properties=species:S:1:pos:R:3:forces:R:3 energy=-0.6670876077007075 pbc="F F F"
Ho       0.00000000       0.00000000       0.00000000       0.00000000       0.00000000       0.06687771
Ho       0.00000000       0.00000000       5.94121212       0.00000000       0.00000000      -0.06687771
2
Properties=species:S:1:pos:R:3:forces:R:3 energy=-0.6644688583583755 pbc="F F F"
Ho       0.00000000       0.00000000       0.00000000       0.00000000       0.00000000       0.03309826
Ho       0.00000000       0.00000000       6.00000000       0.00000000       0.00000000      -0.03309826
