2
Properties=species:S:1:pos:R:3:forces:R:3 energy=8137.28539347531 pbc="F F F"
K        0.00000000       0.00000000       0.00000000       0.00000000       0.00000000  -32440.60742188
K        0.00000000       0.00000000       0.18000000       0.00000000       0.00000000   32440.60742188
2
Properties=species:S:1:pos:R:3:forces:R:3 energy=6910.54760050656 pbc="F F F"
K        0.00000000       0.00000000       0.00000000       0.00000000       0.00000000  -13256.43261719
K        0.00000000       0.00000000       0.23878788       0.00000000       0.00000000   13256.43261719
2
Properties=species:S:1:pos:R:3:forces:R:3 energy=6321.44554972531 pbc="F F F"
K        0.00000000       0.00000000       0.00000000       0.00000000       0.00000000   -7995.13476562
K        0.00000000       0.00000000       0.29757576       0.00000000       0.00000000    7995.13476562
2
Properties=species:S:1:pos:R:3:forces:R:3 energy=5878.650627851895 pbc="F F F"
K        0.00000000       0.00000000       0.00000000       0.00000000       0.00000000   -7580.38525391
K        0.00000000       0.00000000       0.35636364       0.00000000       0.00000000    7580.38525391
2
Properties=species:S:1:pos:R:3:forces:R:3 energy=5385.715080976895 pbc="F F F"
K        0.00000000       0.00000000       0.00000000       0.00000000       0.00000000   -9464.08007812
K        0.00000000       0.00000000       0.41515152       0.00000000       0.00000000    9464.08007812
2
Properties=species:S:1:pos:R:3:forces:R:3 energy=4743.921623948812 pbc="F F F"
K        0.00000000       0.00000000       0.00000000       0.00000000       0.00000000  -12477.56152344
K        0.00000000       0.00000000       0.47393939       0.00000000       0.00000000   12477.56152344
2
Properties=species:S:1:pos:R:3:forces:R:3 energy=3917.528801686355 pbc="F F F"
K        0.00000000       0.00000000       0.00000000       0.00000000       0.00000000  -15542.37109375
K        0.00000000       0.00000000       0.53272727       0.00000000       0.00000000   15542.37109375
2
Properties=species:S:1:pos:R:3:forces:R:3 energy=2940.3554618489406 pbc="F F F"
K        0.00000000       0.00000000       0.00000000       0.00000000       0.00000000  -17391.58203125
K        0.00000000       0.00000000       0.59151515       0.00000000       0.00000000   17391.58203125
2
Properties=species:S:1:pos:R:3:forces:R:3 energy=1920.1141288506317 pbc="F F F"
K        0.00000000       0.00000000       0.00000000       0.00000000       0.00000000  -16845.64257812
K        0.00000000       0.00000000       0.65030303       0.00000000       0.00000000   16845.64257812
2
Properties=species:S:1:pos:R:3:forces:R:3 energy=1012.8530815031896 pbc="F F F"
K        0.00000000       0.00000000       0.00000000       0.00000000       0.00000000  -13570.86132812
K        0.00000000       0.00000000       0.70909091       0.00000000       0.00000000   13570.86132812
2
Properties=species:S:1:pos:R:3:forces:R:3 energy=338.98439866403623 pbc="F F F"
K        0.00000000       0.00000000       0.00000000       0.00000000       0.00000000   -7890.09765625
K        0.00000000       0.00000000       0.76787879       0.00000000       0.00000000    7890.09765625
2
Properties=species:S:1:pos:R:3:forces:R:3 energy=199.13906178481977 pbc="F F F"
K        0.00000000       0.00000000       0.00000000       0.00000000       0.00000000   -1730.98327637
K        0.00000000       0.00000000       0.82666667       0.00000000       0.00000000    1730.98327637
2
Properties=species:S:1:pos:R:3:forces:R:3 energy=113.36496057818071 pbc="F F F"
K        0.00000000       0.00000000       0.00000000       0.00000000       0.00000000   -1182.86096191
K        0.00000000       0.00000000       0.88545455       0.00000000       0.00000000    1182.86096191
2
Properties=species:S:1:pos:R:3:forces:R:3 energy=60.5625810397185 pbc="F F F"
K        0.00000000       0.00000000       0.00000000       0.00000000       0.00000000    -614.31085205
K        0.00000000       0.00000000       0.94424242       0.00000000       0.00000000     614.31085205
2
Properties=species:S:1:pos:R:3:forces:R:3 energy=37.89651210715927 pbc="F F F"
K        0.00000000       0.00000000       0.00000000       0.00000000       0.00000000    -205.62088013
K        0.00000000       0.00000000       1.00303030       0.00000000       0.00000000     205.62088013
2
Properties=species:S:1:pos:R:3:forces:R:3 energy=32.136735167948174 pbc="F F F"
K        0.00000000       0.00000000       0.00000000       0.00000000       0.00000000      41.64962387
K        0.00000000       0.00000000       1.06181818       0.00000000       0.00000000     -41.64962387
2
Properties=species:S:1:pos:R:3:forces:R:3 energy=42.739835165176444 pbc="F F F"
K        0.00000000       0.00000000       0.00000000       0.00000000       0.00000000     276.68157959
K        0.00000000       0.00000000       1.12060606       0.00000000       0.00000000    -276.68157959
2
Properties=species:S:1:pos:R:3:forces:R:3 energy=55.02035296821681 pbc="F F F"
K        0.00000000       0.00000000       0.00000000       0.00000000       0.00000000     -22.01814461
K        0.00000000       0.00000000       1.17939394       0.00000000       0.00000000      22.01814461
2
Properties=species:S:1:pos:R:3:forces:R:3 energy=48.73223299304888 pbc="F F F"
K        0.00000000       0.00000000       0.00000000       0.00000000       0.00000000    -133.39723206
K        0.00000000       0.00000000       1.23818182       0.00000000       0.00000000     133.39723206
2
Properties=species:S:1:pos:R:3:forces:R:3 energy=40.96297677663893 pbc="F F F"
K        0.00000000       0.00000000       0.00000000       0.00000000       0.00000000    -125.87880707
K        0.00000000       0.00000000       1.29696970       0.00000000       0.00000000     125.87880707
2
Properties=species:S:1:pos:R:3:forces:R:3 energy=33.97169764817756 pbc="F F F"
K        0.00000000       0.00000000       0.00000000       0.00000000       0.00000000    -112.93798828
K        0.00000000       0.00000000       1.35575758       0.00000000       0.00000000     112.93798828
2
Properties=species:S:1:pos:R:3:forces:R:3 energy=27.670333345046487 pbc="F F F"
K        0.00000000       0.00000000       0.00000000       0.00000000       0.00000000    -100.90491486
K        0.00000000       0.00000000       1.41454545       0.00000000       0.00000000     100.90491486
2
Properties=species:S:1:pos:R:3:forces:R:3 energy=22.179798347065063 pbc="F F F"
K        0.00000000       0.00000000       0.00000000       0.00000000       0.00000000     -85.39514160
K        0.00000000       0.00000000       1.47333333       0.00000000       0.00000000      85.39514160
2
Properties=species:S:1:pos:R:3:forces:R:3 energy=17.663588700199746 pbc="F F F"
K        0.00000000       0.00000000       0.00000000       0.00000000       0.00000000     -68.18358612
K        0.00000000       0.00000000       1.53212121       0.00000000       0.00000000      68.18358612
2
Properties=species:S:1:pos:R:3:forces:R:3 energy=14.141350127046726 pbc="F F F"
K        0.00000000       0.00000000       0.00000000       0.00000000       0.00000000     -52.08218765
K        0.00000000       0.00000000       1.59090909       0.00000000       0.00000000      52.08218765
2
Properties=species:S:1:pos:R:3:forces:R:3 energy=11.467161912140865 pbc="F F F"
K        0.00000000       0.00000000       0.00000000       0.00000000       0.00000000     -39.61349106
K        0.00000000       0.00000000       1.64969697       0.00000000       0.00000000      39.61349106
2
Properties=species:S:1:pos:R:3:forces:R:3 energy=9.401792030202571 pbc="F F F"
K        0.00000000       0.00000000       0.00000000       0.00000000       0.00000000     -31.27361488
K        0.00000000       0.00000000       1.70848485       0.00000000       0.00000000      31.27361488
2
Properties=species:S:1:pos:R:3:forces:R:3 energy=7.730534107850742 pbc="F F F"
K        0.00000000       0.00000000       0.00000000       0.00000000       0.00000000     -25.96958351
K        0.00000000       0.00000000       1.76727273       0.00000000       0.00000000      25.96958351
2
Properties=species:S:1:pos:R:3:forces:R:3 energy=6.316415768402364 pbc="F F F"
K        0.00000000       0.00000000       0.00000000       0.00000000       0.00000000     -22.31067276
K        0.00000000       0.00000000       1.82606061       0.00000000       0.00000000      22.31067276
2
Properties=species:S:1:pos:R:3:forces:R:3 energy=5.095624816186685 pbc="F F F"
K        0.00000000       0.00000000       0.00000000       0.00000000       0.00000000     -19.27307320
K        0.00000000       0.00000000       1.88484848       0.00000000       0.00000000      19.27307320
2
Properties=species:S:1:pos:R:3:forces:R:3 energy=4.04632122220795 pbc="F F F"
K        0.00000000       0.00000000       0.00000000       0.00000000       0.00000000     -16.45594597
K        0.00000000       0.00000000       1.94363636       0.00000000       0.00000000      16.45594597
2
Properties=species:S:1:pos:R:3:forces:R:3 energy=3.1564735041502874 pbc="F F F"
K        0.00000000       0.00000000       0.00000000       0.00000000       0.00000000     -13.86012077
K        0.00000000       0.00000000       2.00242424       0.00000000       0.00000000      13.86012077
2
Properties=species:S:1:pos:R:3:forces:R:3 energy=2.4112444793624244 pbc="F F F"
K        0.00000000       0.00000000       0.00000000       0.00000000       0.00000000     -11.54128075
K        0.00000000       0.00000000       2.06121212       0.00000000       0.00000000      11.54128075
2
Properties=species:S:1:pos:R:3:forces:R:3 energy=1.7937778045823218 pbc="F F F"
K        0.00000000       0.00000000       0.00000000       0.00000000       0.00000000      -9.51441765
K        0.00000000       0.00000000       2.12000000       0.00000000       0.00000000       9.51441765
2
Properties=species:S:1:pos:R:3:forces:R:3 energy=1.286744010716824 pbc="F F F"
K        0.00000000       0.00000000       0.00000000       0.00000000       0.00000000      -7.78576374
K        0.00000000       0.00000000       2.17878788       0.00000000       0.00000000       7.78576374
2
Properties=species:S:1:pos:R:3:forces:R:3 energy=0.8722982900818689 pbc="F F F"
K        0.00000000       0.00000000       0.00000000       0.00000000       0.00000000      -6.36599398
K        0.00000000       0.00000000       2.23757576       0.00000000       0.00000000       6.36599398
2
Properties=species:S:1:pos:R:3:forces:R:3 energy=0.5322538393807847 pbc="F F F"
K        0.00000000       0.00000000       0.00000000       0.00000000       0.00000000      -5.25111675
K        0.00000000       0.00000000       2.29636364       0.00000000       0.00000000       5.25111675
2
Properties=species:S:1:pos:R:3:forces:R:3 energy=0.2496951786244245 pbc="F F F"
K        0.00000000       0.00000000       0.00000000       0.00000000       0.00000000      -4.40033436
K        0.00000000       0.00000000       2.35515152       0.00000000       0.00000000       4.40033436
2
Properties=species:S:1:pos:R:3:forces:R:3 energy=0.01106856751085086 pbc="F F F"
K        0.00000000       0.00000000       0.00000000       0.00000000       0.00000000      -3.74443412
K        0.00000000       0.00000000       2.41393939       0.00000000       0.00000000       3.74443412
2
Properties=species:S:1:pos:R:3:forces:R:3 energy=-0.19311004515807711 pbc="F F F"
K        0.00000000       0.00000000       0.00000000       0.00000000       0.00000000      -3.21963310
K        0.00000000       0.00000000       2.47272727       0.00000000       0.00000000       3.21963310
2
Properties=species:S:1:pos:R:3:forces:R:3 energy=-0.36926753320507105 pbc="F F F"
K        0.00000000       0.00000000       0.00000000       0.00000000       0.00000000      -2.78652525
K        0.00000000       0.00000000       2.53151515       0.00000000       0.00000000       2.78652525
2
Properties=species:S:1:pos:R:3:forces:R:3 energy=-0.522104229050146 pbc="F F F"
K        0.00000000       0.00000000       0.00000000       0.00000000       0.00000000      -2.42336178
K        0.00000000       0.00000000       2.59030303       0.00000000       0.00000000       2.42336178
2
Properties=species:S:1:pos:R:3:forces:R:3 energy=-0.6552673046011244 pbc="F F F"
K        0.00000000       0.00000000       0.00000000       0.00000000       0.00000000      -2.11490703
K        0.00000000       0.00000000       2.64909091       0.00000000       0.00000000       2.11490703
2
Properties=species:S:1:pos:R:3:forces:R:3 energy=-0.7715985221274022 pbc="F F F"
K        0.00000000       0.00000000       0.00000000       0.00000000       0.00000000      -1.84899950
K        0.00000000       0.00000000       2.70787879       0.00000000       0.00000000       1.84899950
2
Properties=species:S:1:pos:R:3:forces:R:3 energy=-0.8733246571367943 pbc="F F F"
K        0.00000000       0.00000000       0.00000000       0.00000000       0.00000000      -1.61684442
K        0.00000000       0.00000000       2.76666667       0.00000000       0.00000000       1.61684442
2
Properties=species:S:1:pos:R:3:forces:R:3 energy=-0.962247795707447 pbc="F F F"
K        0.00000000       0.00000000       0.00000000       0.00000000       0.00000000      -1.41271317
K        0.00000000       0.00000000       2.82545455       0.00000000       0.00000000       1.41271317
2
Properties=species:S:1:pos:R:3:forces:R:3 energy=-1.0399023673842434 pbc="F F F"
K        0.00000000       0.00000000       0.00000000       0.00000000       0.00000000      -1.23300588
K        0.00000000       0.00000000       2.88424242       0.00000000       0.00000000       1.23300588
2
Properties=species:S:1:pos:R:3:forces:R:3 energy=-1.1076541649168619 pbc="F F F"
K        0.00000000       0.00000000       0.00000000       0.00000000       0.00000000      -1.07550693
K        0.00000000       0.00000000       2.94303030       0.00000000       0.00000000       1.07550693
2
Properties=species:S:1:pos:R:3:forces:R:3 energy=-1.1667629913252826 pbc="F F F"
K        0.00000000       0.00000000       0.00000000       0.00000000       0.00000000      -0.93874961
K        0.00000000       0.00000000       3.00181818       0.00000000       0.00000000       0.93874961
2
Properties=species:S:1:pos:R:3:forces:R:3 energy=-1.2184077940529479 pbc="F F F"
K        0.00000000       0.00000000       0.00000000       0.00000000       0.00000000      -0.82133627
K        0.00000000       0.00000000       3.06060606       0.00000000       0.00000000       0.82133627
2
Properties=species:S:1:pos:R:3:forces:R:3 energy=-1.2636730826113514 pbc="F F F"
K        0.00000000       0.00000000       0.00000000       0.00000000       0.00000000      -0.72134531
K        0.00000000       0.00000000       3.11939394       0.00000000       0.00000000       0.72134531
2
Properties=species:S:1:pos:R:3:forces:R:3 energy=-1.3035092560612414 pbc="F F F"
K        0.00000000       0.00000000       0.00000000       0.00000000       0.00000000      -0.63609093
K        0.00000000       0.00000000       3.17818182       0.00000000       0.00000000       0.63609093
2
Properties=species:S:1:pos:R:3:forces:R:3 energy=-1.3386882139753515 pbc="F F F"
K        0.00000000       0.00000000       0.00000000       0.00000000       0.00000000      -0.56238168
K        0.00000000       0.00000000       3.23696970       0.00000000       0.00000000       0.56238168
2
Properties=species:S:1:pos:R:3:forces:R:3 energy=-1.3697962529822694 pbc="F F F"
K        0.00000000       0.00000000       0.00000000       0.00000000       0.00000000      -0.49707857
K        0.00000000       0.00000000       3.29575758       0.00000000       0.00000000       0.49707857
2
Properties=species:S:1:pos:R:3:forces:R:3 energy=-1.397247965152072 pbc="F F F"
K        0.00000000       0.00000000       0.00000000       0.00000000       0.00000000      -0.43764493
K        0.00000000       0.00000000       3.35454545       0.00000000       0.00000000       0.43764493
2
Properties=species:S:1:pos:R:3:forces:R:3 energy=-1.4213347921911679 pbc="F F F"
K        0.00000000       0.00000000       0.00000000       0.00000000       0.00000000      -0.38241223
K        0.00000000       0.00000000       3.41333333       0.00000000       0.00000000       0.38241223
2
Properties=species:S:1:pos:R:3:forces:R:3 energy=-1.442274845421863 pbc="F F F"
K        0.00000000       0.00000000       0.00000000       0.00000000       0.00000000      -0.33050564
K        0.00000000       0.00000000       3.47212121       0.00000000       0.00000000       0.33050564
2
Properties=species:S:1:pos:R:3:forces:R:3 energy=-1.4602505675823445 pbc="F F F"
K        0.00000000       0.00000000       0.00000000       0.00000000       0.00000000      -0.28150550
K        0.00000000       0.00000000       3.53090909       0.00000000       0.00000000       0.28150550
2
Properties=species:S:1:pos:R:3:forces:R:3 energy=-1.4754230327737352 pbc="F F F"
K        0.00000000       0.00000000       0.00000000       0.00000000       0.00000000      -0.23506741
K        0.00000000       0.00000000       3.58969697       0.00000000       0.00000000       0.23506741
2
Properties=species:S:1:pos:R:3:forces:R:3 energy=-1.4879292216534952 pbc="F F F"
K        0.00000000       0.00000000       0.00000000       0.00000000       0.00000000      -0.19068241
K        0.00000000       0.00000000       3.64848485       0.00000000       0.00000000       0.19068241
2
Properties=species:S:1:pos:R:3:forces:R:3 energy=-1.4978693063912112 pbc="F F F"
K        0.00000000       0.00000000       0.00000000       0.00000000       0.00000000      -0.14766696
K        0.00000000       0.00000000       3.70727273       0.00000000       0.00000000       0.14766696
2
Properties=species:S:1:pos:R:3:forces:R:3 energy=-1.505304601104001 pbc="F F F"
K        0.00000000       0.00000000       0.00000000       0.00000000       0.00000000      -0.10533845
K        0.00000000       0.00000000       3.76606061       0.00000000       0.00000000       0.10533845
2
Properties=species:S:1:pos:R:3:forces:R:3 energy=-1.5102595974220179 pbc="F F F"
K        0.00000000       0.00000000       0.00000000       0.00000000       0.00000000      -0.06326832
K        0.00000000       0.00000000       3.82484848       0.00000000       0.00000000       0.06326832
2
Properties=species:S:1:pos:R:3:forces:R:3 energy=-1.5127480308132422 pbc="F F F"
K        0.00000000       0.00000000       0.00000000       0.00000000       0.00000000      -0.02144896
K        0.00000000       0.00000000       3.88363636       0.00000000       0.00000000       0.02144896
2
Properties=species:S:1:pos:R:3:forces:R:3 energy=-1.512794947565481 pbc="F F F"
K        0.00000000       0.00000000       0.00000000       0.00000000       0.00000000       0.01968165
K        0.00000000       0.00000000       3.94242424       0.00000000       0.00000000      -0.01968165
2
Properties=species:S:1:pos:R:3:forces:R:3 energy=-1.510461818028986 pbc="F F F"
K        0.00000000       0.00000000       0.00000000       0.00000000       0.00000000       0.05936885
K        0.00000000       0.00000000       4.00121212       0.00000000       0.00000000      -0.05936885
2
Properties=species:S:1:pos:R:3:forces:R:3 energy=-1.5058602542927095 pbc="F F F"
K        0.00000000       0.00000000       0.00000000       0.00000000       0.00000000       0.09672754
K        0.00000000       0.00000000       4.06000000       0.00000000       0.00000000      -0.09672754
2
Properties=species:S:1:pos:R:3:forces:R:3 energy=-1.4991516572609136 pbc="F F F"
K        0.00000000       0.00000000       0.00000000       0.00000000       0.00000000       0.13091044
K        0.00000000       0.00000000       4.11878788       0.00000000       0.00000000      -0.13091044
2
Properties=species:S:1:pos:R:3:forces:R:3 energy=-1.4905451511386163 pbc="F F F"
K        0.00000000       0.00000000       0.00000000       0.00000000       0.00000000       0.16117308
K        0.00000000       0.00000000       4.17757576       0.00000000       0.00000000      -0.16117308
2
Properties=species:S:1:pos:R:3:forces:R:3 energy=-1.4802918381409922 pbc="F F F"
K        0.00000000       0.00000000       0.00000000       0.00000000       0.00000000       0.18682681
K        0.00000000       0.00000000       4.23636364       0.00000000       0.00000000      -0.18682681
2
Properties=species:S:1:pos:R:3:forces:R:3 energy=-1.4686843743283977 pbc="F F F"
K        0.00000000       0.00000000       0.00000000       0.00000000       0.00000000       0.20706517
K        0.00000000       0.00000000       4.29515152       0.00000000       0.00000000      -0.20706517
2
Properties=species:S:1:pos:R:3:forces:R:3 energy=-1.456075211864325 pbc="F F F"
K        0.00000000       0.00000000       0.00000000       0.00000000       0.00000000       0.22068737
K        0.00000000       0.00000000       4.35393939       0.00000000       0.00000000      -0.22068737
2
Properties=species:S:1:pos:R:3:forces:R:3 energy=-1.4429021155375195 pbc="F F F"
K        0.00000000       0.00000000       0.00000000       0.00000000       0.00000000       0.22584961
K        0.00000000       0.00000000       4.41272727       0.00000000       0.00000000      -0.22584961
2
Properties=species:S:1:pos:R:3:forces:R:3 energy=-1.4297320548251162 pbc="F F F"
K        0.00000000       0.00000000       0.00000000       0.00000000       0.00000000       0.22025576
K        0.00000000       0.00000000       4.47151515       0.00000000       0.00000000      -0.22025576
2
Properties=species:S:1:pos:R:3:forces:R:3 energy=-1.417243132891347 pbc="F F F"
K        0.00000000       0.00000000       0.00000000       0.00000000       0.00000000       0.20268561
K        0.00000000       0.00000000       4.53030303       0.00000000       0.00000000      -0.20268561
2
Properties=species:S:1:pos:R:3:forces:R:3 energy=-1.4060765222081488 pbc="F F F"
K        0.00000000       0.00000000       0.00000000       0.00000000       0.00000000       0.17646329
K        0.00000000       0.00000000       4.58909091       0.00000000       0.00000000      -0.17646329
2
Properties=species:S:1:pos:R:3:forces:R:3 energy=-1.3964484758707838 pbc="F F F"
K        0.00000000       0.00000000       0.00000000       0.00000000       0.00000000       0.15289976
K        0.00000000       0.00000000       4.64787879       0.00000000       0.00000000      -0.15289976
2
Properties=species:S:1:pos:R:3:forces:R:3 energy=-1.3877135468507789 pbc="F F F"
K        0.00000000       0.00000000       0.00000000       0.00000000       0.00000000       0.14880365
K        0.00000000       0.00000000       4.70666667       0.00000000       0.00000000      -0.14880365
2
Properties=species:S:1:pos:R:3:forces:R:3 energy=-1.3783308378227488 pbc="F F F"
K        0.00000000       0.00000000       0.00000000       0.00000000       0.00000000       0.17590940
K        0.00000000       0.00000000       4.76545455       0.00000000       0.00000000      -0.17590940
2
Properties=species:S:1:pos:R:3:forces:R:3 energy=-1.3664545729852342 pbc="F F F"
K        0.00000000       0.00000000       0.00000000       0.00000000       0.00000000       0.23204255
K        0.00000000       0.00000000       4.82424242       0.00000000       0.00000000      -0.23204255
2
Properties=species:S:1:pos:R:3:forces:R:3 energy=-1.3507326148492549 pbc="F F F"
K        0.00000000       0.00000000       0.00000000       0.00000000       0.00000000       0.30438668
K        0.00000000       0.00000000       4.88303030       0.00000000       0.00000000      -0.30438668
2
Properties=species:S:1:pos:R:3:forces:R:3 energy=-1.3306046479452187 pbc="F F F"
K        0.00000000       0.00000000       0.00000000       0.00000000       0.00000000       0.38015443
K        0.00000000       0.00000000       4.94181818       0.00000000       0.00000000      -0.38015443
2
Properties=species:S:1:pos:R:3:forces:R:3 energy=-1.3060801100086992 pbc="F F F"
K        0.00000000       0.00000000       0.00000000       0.00000000       0.00000000       0.45374522
K        0.00000000       0.00000000       5.00060606       0.00000000       0.00000000      -0.45374522
2
Properties=species:S:1:pos:R:3:forces:R:3 energy=-1.2772659371534978 pbc="F F F"
K        0.00000000       0.00000000       0.00000000       0.00000000       0.00000000       0.52681428
K        0.00000000       0.00000000       5.05939394       0.00000000       0.00000000      -0.52681428
2
Properties=species:S:1:pos:R:3:forces:R:3 energy=-1.2440577617240327 pbc="F F F"
K        0.00000000       0.00000000       0.00000000       0.00000000       0.00000000       0.60390878
K        0.00000000       0.00000000       5.11818182       0.00000000       0.00000000      -0.60390878
2
Properties=species:S:1:pos:R:3:forces:R:3 energy=-1.2061615824286094 pbc="F F F"
K        0.00000000       0.00000000       0.00000000       0.00000000       0.00000000       0.68583584
K        0.00000000       0.00000000       5.17696970       0.00000000       0.00000000      -0.68583584
2
Properties=species:S:1:pos:R:3:forces:R:3 energy=-1.1635222264848517 pbc="F F F"
K        0.00000000       0.00000000       0.00000000       0.00000000       0.00000000       0.76220727
K        0.00000000       0.00000000       5.23575758       0.00000000       0.00000000      -0.76220727
2
Properties=species:S:1:pos:R:3:forces:R:3 energy=-1.1171577912875164 pbc="F F F"
K        0.00000000       0.00000000       0.00000000       0.00000000       0.00000000       0.80730802
K        0.00000000       0.00000000       5.29454545       0.00000000       0.00000000      -0.80730802
2
Properties=species:S:1:pos:R:3:forces:R:3 energy=-1.0697108993002034 pbc="F F F"
K        0.00000000       0.00000000       0.00000000       0.00000000       0.00000000       0.79777849
K        0.00000000       0.00000000       5.35333333       0.00000000       0.00000000      -0.79777849
2
Properties=species:S:1:pos:R:3:forces:R:3 energy=-1.0237356061864757 pbc="F F F"
K        0.00000000       0.00000000       0.00000000       0.00000000       0.00000000       0.77233851
K        0.00000000       0.00000000       5.41212121       0.00000000       0.00000000      -0.77233851
2
Properties=species:S:1:pos:R:3:forces:R:3 energy=-0.9770236843661936 pbc="F F F"
K        0.00000000       0.00000000       0.00000000       0.00000000       0.00000000       0.83707100
K        0.00000000       0.00000000       5.47090909       0.00000000       0.00000000      -0.83707100
2
Properties=species:S:1:pos:R:3:forces:R:3 energy=-0.9242185970126812 pbc="F F F"
K        0.00000000       0.00000000       0.00000000       0.00000000       0.00000000       0.95015848
K        0.00000000       0.00000000       5.52969697       0.00000000       0.00000000      -0.95015848
2
Properties=species:S:1:pos:R:3:forces:R:3 energy=-0.8680831901807884 pbc="F F F"
K        0.00000000       0.00000000       0.00000000       0.00000000       0.00000000       0.93212700
K        0.00000000       0.00000000       5.58848485       0.00000000       0.00000000      -0.93212700
2
Properties=species:S:1:pos:R:3:forces:R:3 energy=-0.8165616040208609 pbc="F F F"
K        0.00000000       0.00000000       0.00000000       0.00000000       0.00000000       0.82154667
K        0.00000000       0.00000000       5.64727273       0.00000000       0.00000000      -0.82154667
2
Properties=species:S:1:pos:R:3:forces:R:3 energy=-0.7687828038351927 pbc="F F F"
K        0.00000000       0.00000000       0.00000000       0.00000000       0.00000000       0.84820545
K        0.00000000       0.00000000       5.70606061       0.00000000       0.00000000      -0.84820545
2
Properties=species:S:1:pos:R:3:forces:R:3 energy=-0.7115202780308646 pbc="F F F"
K        0.00000000       0.00000000       0.00000000       0.00000000       0.00000000       1.11669230
K        0.00000000       0.00000000       5.76484848       0.00000000       0.00000000      -1.11669230
2
Properties=species:S:1:pos:R:3:forces:R:3 energy=-0.6411759855904935 pbc="F F F"
K        0.00000000       0.00000000       0.00000000       0.00000000       0.00000000       1.20266306
K        0.00000000       0.00000000       5.82363636       0.00000000       0.00000000      -1.20266306
2
Properties=species:S:1:pos:R:3:forces:R:3 energy=-0.5803950362300132 pbc="F F F"
K        0.00000000       0.00000000       0.00000000       0.00000000       0.00000000       0.80557555
K        0.00000000       0.00000000       5.88242424       0.00000000       0.00000000      -0.80557555
2
Properties=species:S:1:pos:R:3:forces:R:3 energy=-0.5488423562031746 pbc="F F F"
K        0.00000000       0.00000000       0.00000000       0.00000000       0.00000000       0.28542322
K        0.00000000       0.00000000       5.94121212       0.00000000       0.00000000      -0.28542322
2
Properties=species:S:1:pos:R:3:forces:R:3 energy=-0.5406347146628909 pbc="F F F"
K        0.00000000       0.00000000       0.00000000       0.00000000       0.00000000       0.06572454
K        0.00000000       0.00000000       6.00000000       0.00000000       0.00000000      -0.06572454
