2
Properties=species:S:1:pos:R:3:forces:R:3 energy=5444.465418789946 pbc="F F F"
Kr       0.00000000       0.00000000       0.00000000       0.00000000       0.00000000  -87403.44531250
Kr       0.00000000       0.00000000       0.18000000       0.00000000       0.00000000   87403.44531250
2
Properties=species:S:1:pos:R:3:forces:R:3 energy=2299.7325086368637 pbc="F F F"
Kr       0.00000000       0.00000000       0.00000000       0.00000000       0.00000000  -30998.64648438
Kr       0.00000000       0.00000000       0.23878788       0.00000000       0.00000000   30998.64648438
2
Properties=species:S:1:pos:R:3:forces:R:3 energy=1096.770228366594 pbc="F F F"
Kr       0.00000000       0.00000000       0.00000000       0.00000000       0.00000000  -12950.84472656
Kr       0.00000000       0.00000000       0.29757576       0.00000000       0.00000000   12950.84472656
2
Properties=species:S:1:pos:R:3:forces:R:3 energy=569.507655130742 pbc="F F F"
Kr       0.00000000       0.00000000       0.00000000       0.00000000       0.00000000   -5992.82568359
Kr       0.00000000       0.00000000       0.35636364       0.00000000       0.00000000    5992.82568359
2
Properties=species:S:1:pos:R:3:forces:R:3 energy=317.7055616343862 pbc="F F F"
Kr       0.00000000       0.00000000       0.00000000       0.00000000       0.00000000   -2964.60644531
Kr       0.00000000       0.00000000       0.41515152       0.00000000       0.00000000    2964.60644531
2
Properties=species:S:1:pos:R:3:forces:R:3 energy=190.4405775320372 pbc="F F F"
Kr       0.00000000       0.00000000       0.00000000       0.00000000       0.00000000   -1534.21862793
Kr       0.00000000       0.00000000       0.47393939       0.00000000       0.00000000    1534.21862793
2
Properties=species:S:1:pos:R:3:forces:R:3 energy=123.59436328195311 pbc="F F F"
Kr       0.00000000       0.00000000       0.00000000       0.00000000       0.00000000    -819.38177490
Kr       0.00000000       0.00000000       0.53272727       0.00000000       0.00000000     819.38177490
2
Properties=species:S:1:pos:R:3:forces:R:3 energy=87.42093959722663 pbc="F F F"
Kr       0.00000000       0.00000000       0.00000000       0.00000000       0.00000000    -451.60064697
Kr       0.00000000       0.00000000       0.59151515       0.00000000       0.00000000     451.60064697
2
Properties=species:S:1:pos:R:3:forces:R:3 energy=67.07312326932565 pbc="F F F"
Kr       0.00000000       0.00000000       0.00000000       0.00000000       0.00000000    -258.72238159
Kr       0.00000000       0.00000000       0.65030303       0.00000000       0.00000000     258.72238159
2
Properties=species:S:1:pos:R:3:forces:R:3 energy=55.653213053829354 pbc="F F F"
Kr       0.00000000       0.00000000       0.00000000       0.00000000       0.00000000    -142.53289795
Kr       0.00000000       0.00000000       0.70909091       0.00000000       0.00000000     142.53289795
2
Properties=species:S:1:pos:R:3:forces:R:3 energy=48.91623675657988 pbc="F F F"
Kr       0.00000000       0.00000000       0.00000000       0.00000000       0.00000000     -93.42108917
Kr       0.00000000       0.00000000       0.76787879       0.00000000       0.00000000      93.42108917
2
Properties=species:S:1:pos:R:3:forces:R:3 energy=44.278316858450175 pbc="F F F"
Kr       0.00000000       0.00000000       0.00000000       0.00000000       0.00000000     -65.83708954
Kr       0.00000000       0.00000000       0.82666667       0.00000000       0.00000000      65.83708954
2
Properties=species:S:1:pos:R:3:forces:R:3 energy=41.025845625207275 pbc="F F F"
Kr       0.00000000       0.00000000       0.00000000       0.00000000       0.00000000     -46.11279297
Kr       0.00000000       0.00000000       0.88545455       0.00000000       0.00000000      46.11279297
2
Properties=species:S:1:pos:R:3:forces:R:3 energy=38.68968402742218 pbc="F F F"
Kr       0.00000000       0.00000000       0.00000000       0.00000000       0.00000000     -35.00893402
Kr       0.00000000       0.00000000       0.94424242       0.00000000       0.00000000      35.00893402
2
Properties=species:S:1:pos:R:3:forces:R:3 energy=36.67838622143888 pbc="F F F"
Kr       0.00000000       0.00000000       0.00000000       0.00000000       0.00000000     -35.67020798
Kr       0.00000000       0.00000000       1.00303030       0.00000000       0.00000000      35.67020798
2
Properties=species:S:1:pos:R:3:forces:R:3 energy=34.26127376294936 pbc="F F F"
Kr       0.00000000       0.00000000       0.00000000       0.00000000       0.00000000     -47.66277695
Kr       0.00000000       0.00000000       1.06181818       0.00000000       0.00000000      47.66277695
2
Properties=species:S:1:pos:R:3:forces:R:3 energy=31.081373114756108 pbc="F F F"
Kr       0.00000000       0.00000000       0.00000000       0.00000000       0.00000000     -59.66678238
Kr       0.00000000       0.00000000       1.12060606       0.00000000       0.00000000      59.66678238
2
Properties=species:S:1:pos:R:3:forces:R:3 energy=27.37709537862162 pbc="F F F"
Kr       0.00000000       0.00000000       0.00000000       0.00000000       0.00000000     -65.24806976
Kr       0.00000000       0.00000000       1.17939394       0.00000000       0.00000000      65.24806976
2
Properties=species:S:1:pos:R:3:forces:R:3 energy=23.506970776499593 pbc="F F F"
Kr       0.00000000       0.00000000       0.00000000       0.00000000       0.00000000     -65.87200928
Kr       0.00000000       0.00000000       1.23818182       0.00000000       0.00000000      65.87200928
2
Properties=species:S:1:pos:R:3:forces:R:3 energy=19.681505959843104 pbc="F F F"
Kr       0.00000000       0.00000000       0.00000000       0.00000000       0.00000000     -63.85206985
Kr       0.00000000       0.00000000       1.29696970       0.00000000       0.00000000      63.85206985
2
Properties=species:S:1:pos:R:3:forces:R:3 energy=16.063102359243985 pbc="F F F"
Kr       0.00000000       0.00000000       0.00000000       0.00000000       0.00000000     -58.59877396
Kr       0.00000000       0.00000000       1.35575758       0.00000000       0.00000000      58.59877396
2
Properties=species:S:1:pos:R:3:forces:R:3 energy=12.862113160618096 pbc="F F F"
Kr       0.00000000       0.00000000       0.00000000       0.00000000       0.00000000     -49.88809967
Kr       0.00000000       0.00000000       1.41454545       0.00000000       0.00000000      49.88809967
2
Properties=species:S:1:pos:R:3:forces:R:3 energy=10.213563708329536 pbc="F F F"
Kr       0.00000000       0.00000000       0.00000000       0.00000000       0.00000000     -40.31023407
Kr       0.00000000       0.00000000       1.47333333       0.00000000       0.00000000      40.31023407
2
Properties=species:S:1:pos:R:3:forces:R:3 energy=8.100013583450703 pbc="F F F"
Kr       0.00000000       0.00000000       0.00000000       0.00000000       0.00000000     -31.82263947
Kr       0.00000000       0.00000000       1.53212121       0.00000000       0.00000000      31.82263947
2
Properties=species:S:1:pos:R:3:forces:R:3 energy=6.4446042036213305 pbc="F F F"
Kr       0.00000000       0.00000000       0.00000000       0.00000000       0.00000000     -24.73191261
Kr       0.00000000       0.00000000       1.59090909       0.00000000       0.00000000      24.73191261
2
Properties=species:S:1:pos:R:3:forces:R:3 energy=5.164355427071865 pbc="F F F"
Kr       0.00000000       0.00000000       0.00000000       0.00000000       0.00000000     -19.05271912
Kr       0.00000000       0.00000000       1.64969697       0.00000000       0.00000000      19.05271912
2
Properties=species:S:1:pos:R:3:forces:R:3 energy=4.179215896543597 pbc="F F F"
Kr       0.00000000       0.00000000       0.00000000       0.00000000       0.00000000     -14.65786839
Kr       0.00000000       0.00000000       1.70848485       0.00000000       0.00000000      14.65786839
2
Properties=species:S:1:pos:R:3:forces:R:3 energy=3.4205097517159957 pbc="F F F"
Kr       0.00000000       0.00000000       0.00000000       0.00000000       0.00000000     -11.30691528
Kr       0.00000000       0.00000000       1.76727273       0.00000000       0.00000000      11.30691528
2
Properties=species:S:1:pos:R:3:forces:R:3 energy=2.833970744044358 pbc="F F F"
Kr       0.00000000       0.00000000       0.00000000       0.00000000       0.00000000      -8.76533985
Kr       0.00000000       0.00000000       1.82606061       0.00000000       0.00000000       8.76533985
2
Properties=species:S:1:pos:R:3:forces:R:3 energy=2.3777052074268976 pbc="F F F"
Kr       0.00000000       0.00000000       0.00000000       0.00000000       0.00000000      -6.84811258
Kr       0.00000000       0.00000000       1.88484848       0.00000000       0.00000000       6.84811258
2
Properties=species:S:1:pos:R:3:forces:R:3 energy=2.0194051644266935 pbc="F F F"
Kr       0.00000000       0.00000000       0.00000000       0.00000000       0.00000000      -5.41109991
Kr       0.00000000       0.00000000       1.94363636       0.00000000       0.00000000       5.41109991
2
Properties=species:S:1:pos:R:3:forces:R:3 energy=1.7343763947143405 pbc="F F F"
Kr       0.00000000       0.00000000       0.00000000       0.00000000       0.00000000      -4.33804131
Kr       0.00000000       0.00000000       2.00242424       0.00000000       0.00000000       4.33804131
2
Properties=species:S:1:pos:R:3:forces:R:3 energy=1.5040602177027655 pbc="F F F"
Kr       0.00000000       0.00000000       0.00000000       0.00000000       0.00000000      -3.53611660
Kr       0.00000000       0.00000000       2.06121212       0.00000000       0.00000000       3.53611660
2
Properties=species:S:1:pos:R:3:forces:R:3 energy=1.314699456233906 pbc="F F F"
Kr       0.00000000       0.00000000       0.00000000       0.00000000       0.00000000      -2.93464208
Kr       0.00000000       0.00000000       2.12000000       0.00000000       0.00000000       2.93464208
2
Properties=species:S:1:pos:R:3:forces:R:3 energy=1.1561143702510281 pbc="F F F"
Kr       0.00000000       0.00000000       0.00000000       0.00000000       0.00000000      -2.48179507
Kr       0.00000000       0.00000000       2.17878788       0.00000000       0.00000000       2.48179507
2
Properties=species:S:1:pos:R:3:forces:R:3 energy=1.020735634209711 pbc="F F F"
Kr       0.00000000       0.00000000       0.00000000       0.00000000       0.00000000      -2.13978839
Kr       0.00000000       0.00000000       2.23757576       0.00000000       0.00000000       2.13978839
2
Properties=species:S:1:pos:R:3:forces:R:3 energy=0.9029143194478596 pbc="F F F"
Kr       0.00000000       0.00000000       0.00000000       0.00000000       0.00000000      -1.88026679
Kr       0.00000000       0.00000000       2.29636364       0.00000000       0.00000000       1.88026679
2
Properties=species:S:1:pos:R:3:forces:R:3 energy=0.7984804806094559 pbc="F F F"
Kr       0.00000000       0.00000000       0.00000000       0.00000000       0.00000000      -1.68106818
Kr       0.00000000       0.00000000       2.35515152       0.00000000       0.00000000       1.68106818
2
Properties=species:S:1:pos:R:3:forces:R:3 energy=0.7044300150156628 pbc="F F F"
Kr       0.00000000       0.00000000       0.00000000       0.00000000       0.00000000      -1.52443469
Kr       0.00000000       0.00000000       2.41393939       0.00000000       0.00000000       1.52443469
2
Properties=species:S:1:pos:R:3:forces:R:3 energy=0.6186891457063849 pbc="F F F"
Kr       0.00000000       0.00000000       0.00000000       0.00000000       0.00000000      -1.39624691
Kr       0.00000000       0.00000000       2.47272727       0.00000000       0.00000000       1.39624691
2
Properties=species:S:1:pos:R:3:forces:R:3 energy=0.5399235451929416 pbc="F F F"
Kr       0.00000000       0.00000000       0.00000000       0.00000000       0.00000000      -1.28558469
Kr       0.00000000       0.00000000       2.53151515       0.00000000       0.00000000       1.28558469
2
Properties=species:S:1:pos:R:3:forces:R:3 energy=0.46734963982399724 pbc="F F F"
Kr       0.00000000       0.00000000       0.00000000       0.00000000       0.00000000      -1.18451476
Kr       0.00000000       0.00000000       2.59030303       0.00000000       0.00000000       1.18451476
2
Properties=species:S:1:pos:R:3:forces:R:3 energy=0.40056736807181204 pbc="F F F"
Kr       0.00000000       0.00000000       0.00000000       0.00000000       0.00000000      -1.08792281
Kr       0.00000000       0.00000000       2.64909091       0.00000000       0.00000000       1.08792281
2
Properties=species:S:1:pos:R:3:forces:R:3 energy=0.3394006988016785 pbc="F F F"
Kr       0.00000000       0.00000000       0.00000000       0.00000000       0.00000000      -0.99320936
Kr       0.00000000       0.00000000       2.70787879       0.00000000       0.00000000       0.99320936
2
Properties=species:S:1:pos:R:3:forces:R:3 energy=0.28376503569589795 pbc="F F F"
Kr       0.00000000       0.00000000       0.00000000       0.00000000       0.00000000      -0.89981121
Kr       0.00000000       0.00000000       2.76666667       0.00000000       0.00000000       0.89981121
2
Properties=species:S:1:pos:R:3:forces:R:3 energy=0.23356291675299035 pbc="F F F"
Kr       0.00000000       0.00000000       0.00000000       0.00000000       0.00000000      -0.80855244
Kr       0.00000000       0.00000000       2.82545455       0.00000000       0.00000000       0.80855244
2
Properties=species:S:1:pos:R:3:forces:R:3 energy=0.18862738295553783 pbc="F F F"
Kr       0.00000000       0.00000000       0.00000000       0.00000000       0.00000000      -0.72092247
Kr       0.00000000       0.00000000       2.88424242       0.00000000       0.00000000       0.72092247
2
Properties=species:S:1:pos:R:3:forces:R:3 energy=0.14869898800833486 pbc="F F F"
Kr       0.00000000       0.00000000       0.00000000       0.00000000       0.00000000      -0.63842767
Kr       0.00000000       0.00000000       2.94303030       0.00000000       0.00000000       0.63842767
2
Properties=species:S:1:pos:R:3:forces:R:3 energy=0.11344142813455527 pbc="F F F"
Kr       0.00000000       0.00000000       0.00000000       0.00000000       0.00000000      -0.56216758
Kr       0.00000000       0.00000000       3.00181818       0.00000000       0.00000000       0.56216758
2
Properties=species:S:1:pos:R:3:forces:R:3 energy=0.08246949589318886 pbc="F F F"
Kr       0.00000000       0.00000000       0.00000000       0.00000000       0.00000000      -0.49265966
Kr       0.00000000       0.00000000       3.06060606       0.00000000       0.00000000       0.49265966
2
Properties=species:S:1:pos:R:3:forces:R:3 energy=0.05538430910794996 pbc="F F F"
Kr       0.00000000       0.00000000       0.00000000       0.00000000       0.00000000      -0.42989430
Kr       0.00000000       0.00000000       3.11939394       0.00000000       0.00000000       0.42989430
2
Properties=species:S:1:pos:R:3:forces:R:3 energy=0.03179906265766644 pbc="F F F"
Kr       0.00000000       0.00000000       0.00000000       0.00000000       0.00000000      -0.37350085
Kr       0.00000000       0.00000000       3.17818182       0.00000000       0.00000000       0.37350085
2
Properties=species:S:1:pos:R:3:forces:R:3 energy=0.011355579737581143 pbc="F F F"
Kr       0.00000000       0.00000000       0.00000000       0.00000000       0.00000000      -0.32292631
Kr       0.00000000       0.00000000       3.23696970       0.00000000       0.00000000       0.32292631
2
Properties=species:S:1:pos:R:3:forces:R:3 energy=-0.0062713748384585315 pbc="F F F"
Kr       0.00000000       0.00000000       0.00000000       0.00000000       0.00000000      -0.27757999
Kr       0.00000000       0.00000000       3.29575758       0.00000000       0.00000000       0.27757999
2
Properties=species:S:1:pos:R:3:forces:R:3 energy=-0.021372911871584813 pbc="F F F"
Kr       0.00000000       0.00000000       0.00000000       0.00000000       0.00000000      -0.23691855
Kr       0.00000000       0.00000000       3.35454545       0.00000000       0.00000000       0.23691855
2
Properties=species:S:1:pos:R:3:forces:R:3 energy=-0.03421021618007592 pbc="F F F"
Kr       0.00000000       0.00000000       0.00000000       0.00000000       0.00000000      -0.20048852
Kr       0.00000000       0.00000000       3.41333333       0.00000000       0.00000000       0.20048852
2
Properties=species:S:1:pos:R:3:forces:R:3 energy=-0.04502129890477061 pbc="F F F"
Kr       0.00000000       0.00000000       0.00000000       0.00000000       0.00000000      -0.16792676
Kr       0.00000000       0.00000000       3.47212121       0.00000000       0.00000000       0.16792676
2
Properties=species:S:1:pos:R:3:forces:R:3 energy=-0.05402436150819317 pbc="F F F"
Kr       0.00000000       0.00000000       0.00000000       0.00000000       0.00000000      -0.13894501
Kr       0.00000000       0.00000000       3.53090909       0.00000000       0.00000000       0.13894501
2
Properties=species:S:1:pos:R:3:forces:R:3 energy=-0.06142326235933235 pbc="F F F"
Kr       0.00000000       0.00000000       0.00000000       0.00000000       0.00000000      -0.11330554
Kr       0.00000000       0.00000000       3.58969697       0.00000000       0.00000000       0.11330554
2
Properties=species:S:1:pos:R:3:forces:R:3 energy=-0.06740788682930397 pbc="F F F"
Kr       0.00000000       0.00000000       0.00000000       0.00000000       0.00000000      -0.09079972
Kr       0.00000000       0.00000000       3.64848485       0.00000000       0.00000000       0.09079972
2
Properties=species:S:1:pos:R:3:forces:R:3 energy=-0.07215652696438095 pbc="F F F"
Kr       0.00000000       0.00000000       0.00000000       0.00000000       0.00000000      -0.07122666
Kr       0.00000000       0.00000000       3.70727273       0.00000000       0.00000000       0.07122666
2
Properties=species:S:1:pos:R:3:forces:R:3 energy=-0.07583590689055597 pbc="F F F"
Kr       0.00000000       0.00000000       0.00000000       0.00000000       0.00000000      -0.05438142
Kr       0.00000000       0.00000000       3.76606061       0.00000000       0.00000000       0.05438142
2
Properties=species:S:1:pos:R:3:forces:R:3 energy=-0.07859992613426547 pbc="F F F"
Kr       0.00000000       0.00000000       0.00000000       0.00000000       0.00000000      -0.04005519
Kr       0.00000000       0.00000000       3.82484848       0.00000000       0.00000000       0.04005519
2
Properties=species:S:1:pos:R:3:forces:R:3 energy=-0.08059052216431867 pbc="F F F"
Kr       0.00000000       0.00000000       0.00000000       0.00000000       0.00000000      -0.02803121
Kr       0.00000000       0.00000000       3.88363636       0.00000000       0.00000000       0.02803121
2
Properties=species:S:1:pos:R:3:forces:R:3 energy=-0.08193653899207523 pbc="F F F"
Kr       0.00000000       0.00000000       0.00000000       0.00000000       0.00000000      -0.01809230
Kr       0.00000000       0.00000000       3.94242424       0.00000000       0.00000000       0.01809230
2
Properties=species:S:1:pos:R:3:forces:R:3 energy=-0.08275432483728169 pbc="F F F"
Kr       0.00000000       0.00000000       0.00000000       0.00000000       0.00000000      -0.01002296
Kr       0.00000000       0.00000000       4.00121212       0.00000000       0.00000000       0.01002296
2
Properties=species:S:1:pos:R:3:forces:R:3 energy=-0.08314750987606875 pbc="F F F"
Kr       0.00000000       0.00000000       0.00000000       0.00000000       0.00000000      -0.00361232
Kr       0.00000000       0.00000000       4.06000000       0.00000000       0.00000000       0.00361232
2
Properties=species:S:1:pos:R:3:forces:R:3 energy=-0.08320756072522972 pbc="F F F"
Kr       0.00000000       0.00000000       0.00000000       0.00000000       0.00000000       0.00134376
Kr       0.00000000       0.00000000       4.11878788       0.00000000       0.00000000      -0.00134376
2
Properties=species:S:1:pos:R:3:forces:R:3 energy=-0.08301415796195576 pbc="F F F"
Kr       0.00000000       0.00000000       0.00000000       0.00000000       0.00000000       0.00504274
Kr       0.00000000       0.00000000       4.17757576       0.00000000       0.00000000      -0.00504274
2
Properties=species:S:1:pos:R:3:forces:R:3 energy=-0.08263557566546437 pbc="F F F"
Kr       0.00000000       0.00000000       0.00000000       0.00000000       0.00000000       0.00767491
Kr       0.00000000       0.00000000       4.23636364       0.00000000       0.00000000      -0.00767491
2
Properties=species:S:1:pos:R:3:forces:R:3 energy=-0.08212912103224736 pbc="F F F"
Kr       0.00000000       0.00000000       0.00000000       0.00000000       0.00000000       0.00942265
Kr       0.00000000       0.00000000       4.29515152       0.00000000       0.00000000      -0.00942265
2
Properties=species:S:1:pos:R:3:forces:R:3 energy=-0.0815416189557976 pbc="F F F"
Kr       0.00000000       0.00000000       0.00000000       0.00000000       0.00000000       0.01045858
Kr       0.00000000       0.00000000       4.35393939       0.00000000       0.00000000      -0.01045858
2
Properties=species:S:1:pos:R:3:forces:R:3 energy=-0.0809102199191212 pbc="F F F"
Kr       0.00000000       0.00000000       0.00000000       0.00000000       0.00000000       0.01094379
Kr       0.00000000       0.00000000       4.41272727       0.00000000       0.00000000      -0.01094379
2
Properties=species:S:1:pos:R:3:forces:R:3 energy=-0.08026279895028803 pbc="F F F"
Kr       0.00000000       0.00000000       0.00000000       0.00000000       0.00000000       0.01102502
Kr       0.00000000       0.00000000       4.47151515       0.00000000       0.00000000      -0.01102502
2
Properties=species:S:1:pos:R:3:forces:R:3 energy=-0.07961926736259886 pbc="F F F"
Kr       0.00000000       0.00000000       0.00000000       0.00000000       0.00000000       0.01083332
Kr       0.00000000       0.00000000       4.53030303       0.00000000       0.00000000      -0.01083332
2
Properties=species:S:1:pos:R:3:forces:R:3 energy=-0.07899215184698605 pbc="F F F"
Kr       0.00000000       0.00000000       0.00000000       0.00000000       0.00000000       0.01048379
Kr       0.00000000       0.00000000       4.58909091       0.00000000       0.00000000      -0.01048379
2
Properties=species:S:1:pos:R:3:forces:R:3 energy=-0.07838776717300992 pbc="F F F"
Kr       0.00000000       0.00000000       0.00000000       0.00000000       0.00000000       0.01007539
Kr       0.00000000       0.00000000       4.64787879       0.00000000       0.00000000      -0.01007539
2
Properties=species:S:1:pos:R:3:forces:R:3 energy=-0.07780704918497577 pbc="F F F"
Kr       0.00000000       0.00000000       0.00000000       0.00000000       0.00000000       0.00969093
Kr       0.00000000       0.00000000       4.70666667       0.00000000       0.00000000      -0.00969093
2
Properties=species:S:1:pos:R:3:forces:R:3 energy=-0.07724661023152532 pbc="F F F"
Kr       0.00000000       0.00000000       0.00000000       0.00000000       0.00000000       0.00939476
Kr       0.00000000       0.00000000       4.76545455       0.00000000       0.00000000      -0.00939476
2
Properties=species:S:1:pos:R:3:forces:R:3 energy=-0.0766999110746775 pbc="F F F"
Kr       0.00000000       0.00000000       0.00000000       0.00000000       0.00000000       0.00922716
Kr       0.00000000       0.00000000       4.82424242       0.00000000       0.00000000      -0.00922716
2
Properties=species:S:1:pos:R:3:forces:R:3 energy=-0.07615902664643717 pbc="F F F"
Kr       0.00000000       0.00000000       0.00000000       0.00000000       0.00000000       0.00919457
Kr       0.00000000       0.00000000       4.88303030       0.00000000       0.00000000      -0.00919457
2
Properties=species:S:1:pos:R:3:forces:R:3 energy=-0.07561690062588493 pbc="F F F"
Kr       0.00000000       0.00000000       0.00000000       0.00000000       0.00000000       0.00925992
Kr       0.00000000       0.00000000       4.94181818       0.00000000       0.00000000      -0.00925992
2
Properties=species:S:1:pos:R:3:forces:R:3 energy=-0.07507000494247656 pbc="F F F"
Kr       0.00000000       0.00000000       0.00000000       0.00000000       0.00000000       0.00933873
Kr       0.00000000       0.00000000       5.00060606       0.00000000       0.00000000      -0.00933873
2
Properties=species:S:1:pos:R:3:forces:R:3 energy=-0.07452097653162325 pbc="F F F"
Kr       0.00000000       0.00000000       0.00000000       0.00000000       0.00000000       0.00931193
Kr       0.00000000       0.00000000       5.05939394       0.00000000       0.00000000      -0.00931193
2
Properties=species:S:1:pos:R:3:forces:R:3 energy=-0.07397952234574656 pbc="F F F"
Kr       0.00000000       0.00000000       0.00000000       0.00000000       0.00000000       0.00906429
Kr       0.00000000       0.00000000       5.11818182       0.00000000       0.00000000      -0.00906429
2
Properties=species:S:1:pos:R:3:forces:R:3 energy=-0.07346068531789553 pbc="F F F"
Kr       0.00000000       0.00000000       0.00000000       0.00000000       0.00000000       0.00854348
Kr       0.00000000       0.00000000       5.17696970       0.00000000       0.00000000      -0.00854348
2
Properties=species:S:1:pos:R:3:forces:R:3 energy=-0.07297904756005849 pbc="F F F"
Kr       0.00000000       0.00000000       0.00000000       0.00000000       0.00000000       0.00782262
Kr       0.00000000       0.00000000       5.23575758       0.00000000       0.00000000      -0.00782262
2
Properties=species:S:1:pos:R:3:forces:R:3 energy=-0.07254075601205177 pbc="F F F"
Kr       0.00000000       0.00000000       0.00000000       0.00000000       0.00000000       0.00711283
Kr       0.00000000       0.00000000       5.29454545       0.00000000       0.00000000      -0.00711283
2
Properties=species:S:1:pos:R:3:forces:R:3 energy=-0.0721374366510993 pbc="F F F"
Kr       0.00000000       0.00000000       0.00000000       0.00000000       0.00000000       0.00666702
Kr       0.00000000       0.00000000       5.35333333       0.00000000       0.00000000      -0.00666702
2
Properties=species:S:1:pos:R:3:forces:R:3 energy=-0.07175051384868997 pbc="F F F"
Kr       0.00000000       0.00000000       0.00000000       0.00000000       0.00000000       0.00652897
Kr       0.00000000       0.00000000       5.41212121       0.00000000       0.00000000      -0.00652897
2
Properties=species:S:1:pos:R:3:forces:R:3 energy=-0.07137072754693269 pbc="F F F"
Kr       0.00000000       0.00000000       0.00000000       0.00000000       0.00000000       0.00634417
Kr       0.00000000       0.00000000       5.47090909       0.00000000       0.00000000      -0.00634417
2
Properties=species:S:1:pos:R:3:forces:R:3 energy=-0.07101099137675566 pbc="F F F"
Kr       0.00000000       0.00000000       0.00000000       0.00000000       0.00000000       0.00586318
Kr       0.00000000       0.00000000       5.52969697       0.00000000       0.00000000      -0.00586318
2
Properties=species:S:1:pos:R:3:forces:R:3 energy=-0.07068034681406159 pbc="F F F"
Kr       0.00000000       0.00000000       0.00000000       0.00000000       0.00000000       0.00541803
Kr       0.00000000       0.00000000       5.58848485       0.00000000       0.00000000      -0.00541803
2
Properties=species:S:1:pos:R:3:forces:R:3 energy=-0.07037065480687577 pbc="F F F"
Kr       0.00000000       0.00000000       0.00000000       0.00000000       0.00000000       0.00513280
Kr       0.00000000       0.00000000       5.64727273       0.00000000       0.00000000      -0.00513280
2
Properties=species:S:1:pos:R:3:forces:R:3 energy=-0.07007877818566673 pbc="F F F"
Kr       0.00000000       0.00000000       0.00000000       0.00000000       0.00000000       0.00473459
Kr       0.00000000       0.00000000       5.70606061       0.00000000       0.00000000      -0.00473459
2
Properties=species:S:1:pos:R:3:forces:R:3 energy=-0.06982635280540318 pbc="F F F"
Kr       0.00000000       0.00000000       0.00000000       0.00000000       0.00000000       0.00374260
Kr       0.00000000       0.00000000       5.76484848       0.00000000       0.00000000      -0.00374260
2
Properties=species:S:1:pos:R:3:forces:R:3 energy=-0.06964118002799755 pbc="F F F"
Kr       0.00000000       0.00000000       0.00000000       0.00000000       0.00000000       0.00263398
Kr       0.00000000       0.00000000       5.82363636       0.00000000       0.00000000      -0.00263398
2
Properties=species:S:1:pos:R:3:forces:R:3 energy=-0.06950260788086995 pbc="F F F"
Kr       0.00000000       0.00000000       0.00000000       0.00000000       0.00000000       0.00219263
Kr       0.00000000       0.00000000       5.88242424       0.00000000       0.00000000      -0.00219263
2
Properties=species:S:1:pos:R:3:forces:R:3 energy=-0.06937547406825306 pbc="F F F"
Kr       0.00000000       0.00000000       0.00000000       0.00000000       0.00000000       0.00215708
Kr       0.00000000       0.00000000       5.94121212       0.00000000       0.00000000      -0.00215708
2
Properties=species:S:1:pos:R:3:forces:R:3 energy=-0.06924976731860122 pbc="F F F"
Kr       0.00000000       0.00000000       0.00000000       0.00000000       0.00000000       0.00209550
Kr       0.00000000       0.00000000       6.00000000       0.00000000       0.00000000      -0.00209550
