2
Properties=species:S:1:pos:R:3:forces:R:3 energy=1453789.3517081884 pbc="F F F"
Nd       0.00000000       0.00000000       0.00000000       0.00000000       0.00000000 -336462.37500000
Nd       0.00000000       0.00000000       0.18000000       0.00000000       0.00000000  336462.37500000
2
Properties=species:S:1:pos:R:3:forces:R:3 energy=1431902.7267081884 pbc="F F F"
Nd       0.00000000       0.00000000       0.00000000       0.00000000       0.00000000 -463119.09375000
Nd       0.00000000       0.00000000       0.23878788       0.00000000       0.00000000  463119.09375000
2
Properties=species:S:1:pos:R:3:forces:R:3 energy=1393678.7267081884 pbc="F F F"
Nd       0.00000000       0.00000000       0.00000000       0.00000000       0.00000000 -883609.93750000
Nd       0.00000000       0.00000000       0.29757576       0.00000000       0.00000000  883609.93750000
2
Properties=species:S:1:pos:R:3:forces:R:3 energy=1322667.7267081884 pbc="F F F"
Nd       0.00000000       0.00000000       0.00000000       0.00000000       0.00000000 -1576442.25000000
Nd       0.00000000       0.00000000       0.35636364       0.00000000       0.00000000 1576442.25000000
2
Properties=species:S:1:pos:R:3:forces:R:3 energy=1203695.601708201 pbc="F F F"
Nd       0.00000000       0.00000000       0.00000000       0.00000000       0.00000000 -2501574.25000000
Nd       0.00000000       0.00000000       0.41515152       0.00000000       0.00000000 2501574.25000000
2
Properties=species:S:1:pos:R:3:forces:R:3 energy=1026777.4142082137 pbc="F F F"
Nd       0.00000000       0.00000000       0.00000000       0.00000000       0.00000000 -3512658.50000000
Nd       0.00000000       0.00000000       0.47393939       0.00000000       0.00000000 3512658.50000000
2
Properties=species:S:1:pos:R:3:forces:R:3 energy=794613.6642082264 pbc="F F F"
Nd       0.00000000       0.00000000       0.00000000       0.00000000       0.00000000 -4321060.00000000
Nd       0.00000000       0.00000000       0.53272727       0.00000000       0.00000000 4321060.00000000
2
Properties=species:S:1:pos:R:3:forces:R:3 energy=530097.6642082644 pbc="F F F"
Nd       0.00000000       0.00000000       0.00000000       0.00000000       0.00000000 -4551258.50000000
Nd       0.00000000       0.00000000       0.59151515       0.00000000       0.00000000 4551258.50000000
2
Properties=species:S:1:pos:R:3:forces:R:3 energy=276402.0392083151 pbc="F F F"
Nd       0.00000000       0.00000000       0.00000000       0.00000000       0.00000000 -3931262.00000000
Nd       0.00000000       0.00000000       0.65030303       0.00000000       0.00000000 3931262.00000000
2
Properties=species:S:1:pos:R:3:forces:R:3 energy=119241.63295839111 pbc="F F F"
Nd       0.00000000       0.00000000       0.00000000       0.00000000       0.00000000 -2068007.25000000
Nd       0.00000000       0.00000000       0.70909091       0.00000000       0.00000000 2068007.25000000
2
Properties=species:S:1:pos:R:3:forces:R:3 energy=28706.40444286749 pbc="F F F"
Nd       0.00000000       0.00000000       0.00000000       0.00000000       0.00000000 -1019483.87500000
Nd       0.00000000       0.00000000       0.76787879       0.00000000       0.00000000 1019483.87500000
2
Properties=species:S:1:pos:R:3:forces:R:3 energy=-2382.0362307832374 pbc="F F F"
Nd       0.00000000       0.00000000       0.00000000       0.00000000       0.00000000  -32315.24414062
Nd       0.00000000       0.00000000       0.82666667       0.00000000       0.00000000   32315.24414062
2
Properties=species:S:1:pos:R:3:forces:R:3 energy=-2152.6800293579367 pbc="F F F"
Nd       0.00000000       0.00000000       0.00000000       0.00000000       0.00000000   26917.79101562
Nd       0.00000000       0.00000000       0.88545455       0.00000000       0.00000000  -26917.79101562
2
Properties=species:S:1:pos:R:3:forces:R:3 energy=-599.0433102531408 pbc="F F F"
Nd       0.00000000       0.00000000       0.00000000       0.00000000       0.00000000   19574.39648438
Nd       0.00000000       0.00000000       0.94424242       0.00000000       0.00000000  -19574.39648438
2
Properties=species:S:1:pos:R:3:forces:R:3 energy=48.01373901330432 pbc="F F F"
Nd       0.00000000       0.00000000       0.00000000       0.00000000       0.00000000    2838.68359375
Nd       0.00000000       0.00000000       1.00303030       0.00000000       0.00000000   -2838.68359375
2
Properties=species:S:1:pos:R:3:forces:R:3 energy=137.3092451832217 pbc="F F F"
Nd       0.00000000       0.00000000       0.00000000       0.00000000       0.00000000     876.63787842
Nd       0.00000000       0.00000000       1.06181818       0.00000000       0.00000000    -876.63787842
2
Properties=species:S:1:pos:R:3:forces:R:3 energy=135.68839642282302 pbc="F F F"
Nd       0.00000000       0.00000000       0.00000000       0.00000000       0.00000000    -897.90362549
Nd       0.00000000       0.00000000       1.12060606       0.00000000       0.00000000     897.90362549
2
Properties=species:S:1:pos:R:3:forces:R:3 energy=93.95568575857551 pbc="F F F"
Nd       0.00000000       0.00000000       0.00000000       0.00000000       0.00000000    -208.21751404
Nd       0.00000000       0.00000000       1.17939394       0.00000000       0.00000000     208.21751404
2
Properties=species:S:1:pos:R:3:forces:R:3 energy=86.37576167866432 pbc="F F F"
Nd       0.00000000       0.00000000       0.00000000       0.00000000       0.00000000    -105.19758606
Nd       0.00000000       0.00000000       1.23818182       0.00000000       0.00000000     105.19758606
2
Properties=species:S:1:pos:R:3:forces:R:3 energy=79.30843410926289 pbc="F F F"
Nd       0.00000000       0.00000000       0.00000000       0.00000000       0.00000000    -139.03831482
Nd       0.00000000       0.00000000       1.29696970       0.00000000       0.00000000     139.03831482
2
Properties=species:S:1:pos:R:3:forces:R:3 energy=70.45389087286085 pbc="F F F"
Nd       0.00000000       0.00000000       0.00000000       0.00000000       0.00000000    -157.78674316
Nd       0.00000000       0.00000000       1.35575758       0.00000000       0.00000000     157.78674316
2
Properties=species:S:1:pos:R:3:forces:R:3 energy=61.07949653476777 pbc="F F F"
Nd       0.00000000       0.00000000       0.00000000       0.00000000       0.00000000    -159.54631042
Nd       0.00000000       0.00000000       1.41454545       0.00000000       0.00000000     159.54631042
2
Properties=species:S:1:pos:R:3:forces:R:3 energy=51.82529256034361 pbc="F F F"
Nd       0.00000000       0.00000000       0.00000000       0.00000000       0.00000000    -154.46096802
Nd       0.00000000       0.00000000       1.47333333       0.00000000       0.00000000     154.46096802
2
Properties=species:S:1:pos:R:3:forces:R:3 energy=43.00084561211786 pbc="F F F"
Nd       0.00000000       0.00000000       0.00000000       0.00000000       0.00000000    -145.11820984
Nd       0.00000000       0.00000000       1.53212121       0.00000000       0.00000000     145.11820984
2
Properties=species:S:1:pos:R:3:forces:R:3 energy=34.83305402283406 pbc="F F F"
Nd       0.00000000       0.00000000       0.00000000       0.00000000       0.00000000    -132.22038269
Nd       0.00000000       0.00000000       1.59090909       0.00000000       0.00000000     132.22038269
2
Properties=species:S:1:pos:R:3:forces:R:3 energy=27.505668109806862 pbc="F F F"
Nd       0.00000000       0.00000000       0.00000000       0.00000000       0.00000000    -116.72058105
Nd       0.00000000       0.00000000       1.64969697       0.00000000       0.00000000     116.72058105
2
Properties=species:S:1:pos:R:3:forces:R:3 energy=21.146657817598165 pbc="F F F"
Nd       0.00000000       0.00000000       0.00000000       0.00000000       0.00000000     -99.31069946
Nd       0.00000000       0.00000000       1.70848485       0.00000000       0.00000000      99.31069946
2
Properties=species:S:1:pos:R:3:forces:R:3 energy=15.852956764501906 pbc="F F F"
Nd       0.00000000       0.00000000       0.00000000       0.00000000       0.00000000     -80.79300690
Nd       0.00000000       0.00000000       1.76727273       0.00000000       0.00000000      80.79300690
2
Properties=species:S:1:pos:R:3:forces:R:3 energy=11.613319476404799 pbc="F F F"
Nd       0.00000000       0.00000000       0.00000000       0.00000000       0.00000000     -63.95986938
Nd       0.00000000       0.00000000       1.82606061       0.00000000       0.00000000      63.95986938
2
Properties=species:S:1:pos:R:3:forces:R:3 energy=8.262585073920112 pbc="F F F"
Nd       0.00000000       0.00000000       0.00000000       0.00000000       0.00000000     -50.62391663
Nd       0.00000000       0.00000000       1.88484848       0.00000000       0.00000000      50.62391663
2
Properties=species:S:1:pos:R:3:forces:R:3 energy=5.600691636911065 pbc="F F F"
Nd       0.00000000       0.00000000       0.00000000       0.00000000       0.00000000     -40.36510468
Nd       0.00000000       0.00000000       1.94363636       0.00000000       0.00000000      40.36510468
2
Properties=species:S:1:pos:R:3:forces:R:3 energy=3.4749595999772054 pbc="F F F"
Nd       0.00000000       0.00000000       0.00000000       0.00000000       0.00000000     -32.24319839
Nd       0.00000000       0.00000000       2.00242424       0.00000000       0.00000000      32.24319839
2
Properties=species:S:1:pos:R:3:forces:R:3 energy=1.7813301492394167 pbc="F F F"
Nd       0.00000000       0.00000000       0.00000000       0.00000000       0.00000000     -25.57752228
Nd       0.00000000       0.00000000       2.06121212       0.00000000       0.00000000      25.57752228
2
Properties=species:S:1:pos:R:3:forces:R:3 energy=0.44703265580510454 pbc="F F F"
Nd       0.00000000       0.00000000       0.00000000       0.00000000       0.00000000     -19.97108459
Nd       0.00000000       0.00000000       2.12000000       0.00000000       0.00000000      19.97108459
2
Properties=species:S:1:pos:R:3:forces:R:3 energy=-0.5834926769589223 pbc="F F F"
Nd       0.00000000       0.00000000       0.00000000       0.00000000       0.00000000     -15.22094154
Nd       0.00000000       0.00000000       2.17878788       0.00000000       0.00000000      15.22094154
2
Properties=species:S:1:pos:R:3:forces:R:3 energy=-1.3576211366747246 pbc="F F F"
Nd       0.00000000       0.00000000       0.00000000       0.00000000       0.00000000     -11.24038506
Nd       0.00000000       0.00000000       2.23757576       0.00000000       0.00000000      11.24038506
2
Properties=species:S:1:pos:R:3:forces:R:3 energy=-1.9195784888631435 pbc="F F F"
Nd       0.00000000       0.00000000       0.00000000       0.00000000       0.00000000      -7.99909067
Nd       0.00000000       0.00000000       2.29636364       0.00000000       0.00000000       7.99909067
2
Properties=species:S:1:pos:R:3:forces:R:3 energy=-2.311964872473685 pbc="F F F"
Nd       0.00000000       0.00000000       0.00000000       0.00000000       0.00000000      -5.46335411
Nd       0.00000000       0.00000000       2.35515152       0.00000000       0.00000000       5.46335411
2
Properties=species:S:1:pos:R:3:forces:R:3 energy=-2.574630860440568 pbc="F F F"
Nd       0.00000000       0.00000000       0.00000000       0.00000000       0.00000000      -3.57477021
Nd       0.00000000       0.00000000       2.41393939       0.00000000       0.00000000       3.57477021
2
Properties=species:S:1:pos:R:3:forces:R:3 energy=-2.7434975730681077 pbc="F F F"
Nd       0.00000000       0.00000000       0.00000000       0.00000000       0.00000000      -2.25822115
Nd       0.00000000       0.00000000       2.47272727       0.00000000       0.00000000       2.25822115
2
Properties=species:S:1:pos:R:3:forces:R:3 energy=-2.8493769017058956 pbc="F F F"
Nd       0.00000000       0.00000000       0.00000000       0.00000000       0.00000000      -1.41178465
Nd       0.00000000       0.00000000       2.53151515       0.00000000       0.00000000       1.41178465
2
Properties=species:S:1:pos:R:3:forces:R:3 energy=-2.916107319046499 pbc="F F F"
Nd       0.00000000       0.00000000       0.00000000       0.00000000       0.00000000      -0.90299129
Nd       0.00000000       0.00000000       2.59030303       0.00000000       0.00000000       0.90299129
2
Properties=species:S:1:pos:R:3:forces:R:3 energy=-2.9595457590099006 pbc="F F F"
Nd       0.00000000       0.00000000       0.00000000       0.00000000       0.00000000      -0.59948170
Nd       0.00000000       0.00000000       2.64909091       0.00000000       0.00000000       0.59948170
2
Properties=species:S:1:pos:R:3:forces:R:3 energy=-2.9886565607573745 pbc="F F F"
Nd       0.00000000       0.00000000       0.00000000       0.00000000       0.00000000      -0.40282628
Nd       0.00000000       0.00000000       2.70787879       0.00000000       0.00000000       0.40282628
2
Properties=species:S:1:pos:R:3:forces:R:3 energy=-3.007867873550341 pbc="F F F"
Nd       0.00000000       0.00000000       0.00000000       0.00000000       0.00000000      -0.25612581
Nd       0.00000000       0.00000000       2.76666667       0.00000000       0.00000000       0.25612581
2
Properties=species:S:1:pos:R:3:forces:R:3 energy=-3.0192030048059406 pbc="F F F"
Nd       0.00000000       0.00000000       0.00000000       0.00000000       0.00000000      -0.13195162
Nd       0.00000000       0.00000000       2.82545455       0.00000000       0.00000000       0.13195162
2
Properties=species:S:1:pos:R:3:forces:R:3 energy=-3.0235660364319896 pbc="F F F"
Nd       0.00000000       0.00000000       0.00000000       0.00000000       0.00000000      -0.01733921
Nd       0.00000000       0.00000000       2.88424242       0.00000000       0.00000000       0.01733921
2
Properties=species:S:1:pos:R:3:forces:R:3 energy=-3.0212668098668756 pbc="F F F"
Nd       0.00000000       0.00000000       0.00000000       0.00000000       0.00000000       0.09595155
Nd       0.00000000       0.00000000       2.94303030       0.00000000       0.00000000      -0.09595155
2
Properties=species:S:1:pos:R:3:forces:R:3 energy=-3.0121766640968626 pbc="F F F"
Nd       0.00000000       0.00000000       0.00000000       0.00000000       0.00000000       0.21472815
Nd       0.00000000       0.00000000       3.00181818       0.00000000       0.00000000      -0.21472815
2
Properties=species:S:1:pos:R:3:forces:R:3 energy=-2.995822646672801 pbc="F F F"
Nd       0.00000000       0.00000000       0.00000000       0.00000000       0.00000000       0.34351745
Nd       0.00000000       0.00000000       3.06060606       0.00000000       0.00000000      -0.34351745
2
Properties=species:S:1:pos:R:3:forces:R:3 energy=-2.9715825551150226 pbc="F F F"
Nd       0.00000000       0.00000000       0.00000000       0.00000000       0.00000000       0.48257819
Nd       0.00000000       0.00000000       3.11939394       0.00000000       0.00000000      -0.48257819
2
Properties=species:S:1:pos:R:3:forces:R:3 energy=-2.9389682392058525 pbc="F F F"
Nd       0.00000000       0.00000000       0.00000000       0.00000000       0.00000000       0.62738150
Nd       0.00000000       0.00000000       3.17818182       0.00000000       0.00000000      -0.62738150
2
Properties=species:S:1:pos:R:3:forces:R:3 energy=-2.897854847957014 pbc="F F F"
Nd       0.00000000       0.00000000       0.00000000       0.00000000       0.00000000       0.77030170
Nd       0.00000000       0.00000000       3.23696970       0.00000000       0.00000000      -0.77030170
2
Properties=species:S:1:pos:R:3:forces:R:3 energy=-2.848593624604213 pbc="F F F"
Nd       0.00000000       0.00000000       0.00000000       0.00000000       0.00000000       0.90334255
Nd       0.00000000       0.00000000       3.29575758       0.00000000       0.00000000      -0.90334255
2
Properties=species:S:1:pos:R:3:forces:R:3 energy=-2.7919599336928007 pbc="F F F"
Nd       0.00000000       0.00000000       0.00000000       0.00000000       0.00000000       1.02026320
Nd       0.00000000       0.00000000       3.35454545       0.00000000       0.00000000      -1.02026320
2
Properties=species:S:1:pos:R:3:forces:R:3 energy=-2.7290263210233827 pbc="F F F"
Nd       0.00000000       0.00000000       0.00000000       0.00000000       0.00000000       1.11727166
Nd       0.00000000       0.00000000       3.41333333       0.00000000       0.00000000      -1.11727166
2
Properties=species:S:1:pos:R:3:forces:R:3 energy=-2.6610201144036507 pbc="F F F"
Nd       0.00000000       0.00000000       0.00000000       0.00000000       0.00000000       1.19270504
Nd       0.00000000       0.00000000       3.47212121       0.00000000       0.00000000      -1.19270504
2
Properties=species:S:1:pos:R:3:forces:R:3 energy=-2.5892195998607814 pbc="F F F"
Nd       0.00000000       0.00000000       0.00000000       0.00000000       0.00000000       1.24649417
Nd       0.00000000       0.00000000       3.53090909       0.00000000       0.00000000      -1.24649417
2
Properties=species:S:1:pos:R:3:forces:R:3 energy=-2.5148635342870715 pbc="F F F"
Nd       0.00000000       0.00000000       0.00000000       0.00000000       0.00000000       1.27983189
Nd       0.00000000       0.00000000       3.58969697       0.00000000       0.00000000      -1.27983189
2
Properties=species:S:1:pos:R:3:forces:R:3 energy=-2.439097627972524 pbc="F F F"
Nd       0.00000000       0.00000000       0.00000000       0.00000000       0.00000000       1.29497933
Nd       0.00000000       0.00000000       3.64848485       0.00000000       0.00000000      -1.29497933
2
Properties=species:S:1:pos:R:3:forces:R:3 energy=-2.3629047006324626 pbc="F F F"
Nd       0.00000000       0.00000000       0.00000000       0.00000000       0.00000000       1.29488027
Nd       0.00000000       0.00000000       3.70727273       0.00000000       0.00000000      -1.29488027
2
Properties=species:S:1:pos:R:3:forces:R:3 energy=-2.287088644006286 pbc="F F F"
Nd       0.00000000       0.00000000       0.00000000       0.00000000       0.00000000       1.28261602
Nd       0.00000000       0.00000000       3.76606061       0.00000000       0.00000000      -1.28261602
2
Properties=species:S:1:pos:R:3:forces:R:3 energy=-2.2122861803955782 pbc="F F F"
Nd       0.00000000       0.00000000       0.00000000       0.00000000       0.00000000       1.26087594
Nd       0.00000000       0.00000000       3.82484848       0.00000000       0.00000000      -1.26087594
2
Properties=species:S:1:pos:R:3:forces:R:3 energy=-2.138985685060567 pbc="F F F"
Nd       0.00000000       0.00000000       0.00000000       0.00000000       0.00000000       1.23173535
Nd       0.00000000       0.00000000       3.88363636       0.00000000       0.00000000      -1.23173535
2
Properties=species:S:1:pos:R:3:forces:R:3 energy=-2.0675768659835976 pbc="F F F"
Nd       0.00000000       0.00000000       0.00000000       0.00000000       0.00000000       1.19680500
Nd       0.00000000       0.00000000       3.94242424       0.00000000       0.00000000      -1.19680500
2
Properties=species:S:1:pos:R:3:forces:R:3 energy=-1.99835609544099 pbc="F F F"
Nd       0.00000000       0.00000000       0.00000000       0.00000000       0.00000000       1.15754843
Nd       0.00000000       0.00000000       4.00121212       0.00000000       0.00000000      -1.15754843
2
Properties=species:S:1:pos:R:3:forces:R:3 energy=-1.9315320151755508 pbc="F F F"
Nd       0.00000000       0.00000000       0.00000000       0.00000000       0.00000000       1.11549711
Nd       0.00000000       0.00000000       4.06000000       0.00000000       0.00000000      -1.11549711
2
Properties=species:S:1:pos:R:3:forces:R:3 energy=-1.8672238979767894 pbc="F F F"
Nd       0.00000000       0.00000000       0.00000000       0.00000000       0.00000000       1.07225597
Nd       0.00000000       0.00000000       4.11878788       0.00000000       0.00000000      -1.07225597
2
Properties=species:S:1:pos:R:3:forces:R:3 energy=-1.8054545077948332 pbc="F F F"
Nd       0.00000000       0.00000000       0.00000000       0.00000000       0.00000000       1.02933121
Nd       0.00000000       0.00000000       4.17757576       0.00000000       0.00000000      -1.02933121
2
Properties=species:S:1:pos:R:3:forces:R:3 energy=-1.7461685161597693 pbc="F F F"
Nd       0.00000000       0.00000000       0.00000000       0.00000000       0.00000000       0.98795187
Nd       0.00000000       0.00000000       4.23636364       0.00000000       0.00000000      -0.98795187
2
Properties=species:S:1:pos:R:3:forces:R:3 energy=-1.6892475150485322 pbc="F F F"
Nd       0.00000000       0.00000000       0.00000000       0.00000000       0.00000000       0.94892681
Nd       0.00000000       0.00000000       4.29515152       0.00000000       0.00000000      -0.94892681
2
Properties=species:S:1:pos:R:3:forces:R:3 energy=-1.6345438873303277 pbc="F F F"
Nd       0.00000000       0.00000000       0.00000000       0.00000000       0.00000000       0.91265678
Nd       0.00000000       0.00000000       4.35393939       0.00000000       0.00000000      -0.91265678
2
Properties=species:S:1:pos:R:3:forces:R:3 energy=-1.581888509852993 pbc="F F F"
Nd       0.00000000       0.00000000       0.00000000       0.00000000       0.00000000       0.87914515
Nd       0.00000000       0.00000000       4.41272727       0.00000000       0.00000000      -0.87914515
2
Properties=species:S:1:pos:R:3:forces:R:3 energy=-1.5311283498866655 pbc="F F F"
Nd       0.00000000       0.00000000       0.00000000       0.00000000       0.00000000       0.84809178
Nd       0.00000000       0.00000000       4.47151515       0.00000000       0.00000000      -0.84809178
2
Properties=species:S:1:pos:R:3:forces:R:3 energy=-1.4821338382607563 pbc="F F F"
Nd       0.00000000       0.00000000       0.00000000       0.00000000       0.00000000       0.81898701
Nd       0.00000000       0.00000000       4.53030303       0.00000000       0.00000000      -0.81898701
2
Properties=species:S:1:pos:R:3:forces:R:3 energy=-1.434809641381566 pbc="F F F"
Nd       0.00000000       0.00000000       0.00000000       0.00000000       0.00000000       0.79120582
Nd       0.00000000       0.00000000       4.58909091       0.00000000       0.00000000      -0.79120582
2
Properties=species:S:1:pos:R:3:forces:R:3 energy=-1.3890951709156174 pbc="F F F"
Nd       0.00000000       0.00000000       0.00000000       0.00000000       0.00000000       0.76412600
Nd       0.00000000       0.00000000       4.64787879       0.00000000       0.00000000      -0.76412600
2
Properties=species:S:1:pos:R:3:forces:R:3 energy=-1.344962412679866 pbc="F F F"
Nd       0.00000000       0.00000000       0.00000000       0.00000000       0.00000000       0.73725820
Nd       0.00000000       0.00000000       4.70666667       0.00000000       0.00000000      -0.73725820
2
Properties=species:S:1:pos:R:3:forces:R:3 energy=-1.302410701607845 pbc="F F F"
Nd       0.00000000       0.00000000       0.00000000       0.00000000       0.00000000       0.71041471
Nd       0.00000000       0.00000000       4.76545455       0.00000000       0.00000000      -0.71041471
2
Properties=species:S:1:pos:R:3:forces:R:3 energy=-1.2614294777661708 pbc="F F F"
Nd       0.00000000       0.00000000       0.00000000       0.00000000       0.00000000       0.68384385
Nd       0.00000000       0.00000000       4.82424242       0.00000000       0.00000000      -0.68384385
2
Properties=species:S:1:pos:R:3:forces:R:3 energy=-1.2219877654267934 pbc="F F F"
Nd       0.00000000       0.00000000       0.00000000       0.00000000       0.00000000       0.65840584
Nd       0.00000000       0.00000000       4.88303030       0.00000000       0.00000000      -0.65840584
2
Properties=species:S:1:pos:R:3:forces:R:3 energy=-1.1839658408015066 pbc="F F F"
Nd       0.00000000       0.00000000       0.00000000       0.00000000       0.00000000       0.63563496
Nd       0.00000000       0.00000000       4.94181818       0.00000000       0.00000000      -0.63563496
2
Properties=species:S:1:pos:R:3:forces:R:3 energy=-1.1471545167862098 pbc="F F F"
Nd       0.00000000       0.00000000       0.00000000       0.00000000       0.00000000       0.61765188
Nd       0.00000000       0.00000000       5.00060606       0.00000000       0.00000000      -0.61765188
2
Properties=species:S:1:pos:R:3:forces:R:3 energy=-1.1112073221968195 pbc="F F F"
Nd       0.00000000       0.00000000       0.00000000       0.00000000       0.00000000       0.60658389
Nd       0.00000000       0.00000000       5.05939394       0.00000000       0.00000000      -0.60658389
2
Properties=species:S:1:pos:R:3:forces:R:3 energy=-1.075675388325441 pbc="F F F"
Nd       0.00000000       0.00000000       0.00000000       0.00000000       0.00000000       0.60354894
Nd       0.00000000       0.00000000       5.11818182       0.00000000       0.00000000      -0.60354894
2
Properties=species:S:1:pos:R:3:forces:R:3 energy=-1.0401167005024456 pbc="F F F"
Nd       0.00000000       0.00000000       0.00000000       0.00000000       0.00000000       0.60699701
Nd       0.00000000       0.00000000       5.17696970       0.00000000       0.00000000      -0.60699701
2
Properties=species:S:1:pos:R:3:forces:R:3 energy=-1.0042965586042918 pbc="F F F"
Nd       0.00000000       0.00000000       0.00000000       0.00000000       0.00000000       0.61098647
Nd       0.00000000       0.00000000       5.23575758       0.00000000       0.00000000      -0.61098647
2
Properties=species:S:1:pos:R:3:forces:R:3 energy=-0.9684791833985932 pbc="F F F"
Nd       0.00000000       0.00000000       0.00000000       0.00000000       0.00000000       0.60489774
Nd       0.00000000       0.00000000       5.29454545       0.00000000       0.00000000      -0.60489774
2
Properties=species:S:1:pos:R:3:forces:R:3 energy=-0.933558241796687 pbc="F F F"
Nd       0.00000000       0.00000000       0.00000000       0.00000000       0.00000000       0.57981592
Nd       0.00000000       0.00000000       5.35333333       0.00000000       0.00000000      -0.57981592
2
Properties=species:S:1:pos:R:3:forces:R:3 energy=-0.9004973357172229 pbc="F F F"
Nd       0.00000000       0.00000000       0.00000000       0.00000000       0.00000000       0.54577124
Nd       0.00000000       0.00000000       5.41212121       0.00000000       0.00000000      -0.54577124
2
Properties=species:S:1:pos:R:3:forces:R:3 energy=-0.8689756285016628 pbc="F F F"
Nd       0.00000000       0.00000000       0.00000000       0.00000000       0.00000000       0.53122038
Nd       0.00000000       0.00000000       5.47090909       0.00000000       0.00000000      -0.53122038
2
Properties=species:S:1:pos:R:3:forces:R:3 energy=-0.8378300215115417 pbc="F F F"
Nd       0.00000000       0.00000000       0.00000000       0.00000000       0.00000000       0.52547920
Nd       0.00000000       0.00000000       5.52969697       0.00000000       0.00000000      -0.52547920
2
Properties=species:S:1:pos:R:3:forces:R:3 energy=-0.8079269554309495 pbc="F F F"
Nd       0.00000000       0.00000000       0.00000000       0.00000000       0.00000000       0.48495948
Nd       0.00000000       0.00000000       5.58848485       0.00000000       0.00000000      -0.48495948
2
Properties=species:S:1:pos:R:3:forces:R:3 energy=-0.781296693398879 pbc="F F F"
Nd       0.00000000       0.00000000       0.00000000       0.00000000       0.00000000       0.42113233
Nd       0.00000000       0.00000000       5.64727273       0.00000000       0.00000000      -0.42113233
2
Properties=species:S:1:pos:R:3:forces:R:3 energy=-0.7577901410812269 pbc="F F F"
Nd       0.00000000       0.00000000       0.00000000       0.00000000       0.00000000       0.38898480
Nd       0.00000000       0.00000000       5.70606061       0.00000000       0.00000000      -0.38898480
2
Properties=species:S:1:pos:R:3:forces:R:3 energy=-0.734300099315515 pbc="F F F"
Nd       0.00000000       0.00000000       0.00000000       0.00000000       0.00000000       0.41375837
Nd       0.00000000       0.00000000       5.76484848       0.00000000       0.00000000      -0.41375837
2
Properties=species:S:1:pos:R:3:forces:R:3 energy=-0.7099500246686754 pbc="F F F"
Nd       0.00000000       0.00000000       0.00000000       0.00000000       0.00000000       0.39784756
Nd       0.00000000       0.00000000       5.82363636       0.00000000       0.00000000      -0.39784756
2
Properties=species:S:1:pos:R:3:forces:R:3 energy=-0.689989926315783 pbc="F F F"
Nd       0.00000000       0.00000000       0.00000000       0.00000000       0.00000000       0.26691785
Nd       0.00000000       0.00000000       5.88242424       0.00000000       0.00000000      -0.26691785
2
Properties=species:S:1:pos:R:3:forces:R:3 energy=-0.6790780524308806 pbc="F F F"
Nd       0.00000000       0.00000000       0.00000000       0.00000000       0.00000000       0.11014897
Nd       0.00000000       0.00000000       5.94121212       0.00000000       0.00000000      -0.11014897
2
Properties=species:S:1:pos:R:3:forces:R:3 energy=-0.6751776080608068 pbc="F F F"
Nd       0.00000000       0.00000000       0.00000000       0.00000000       0.00000000       0.04415693
Nd       0.00000000       0.00000000       6.00000000       0.00000000       0.00000000      -0.04415693
