2
Properties=species:S:1:pos:R:3:forces:R:3 energy=1144.262739451466 pbc="F F F"
O        0.00000000       0.00000000       0.00000000       0.00000000       0.00000000   -7920.96533203
O        0.00000000       0.00000000       0.18000000       0.00000000       0.00000000    7920.96533203
2
Properties=species:S:1:pos:R:3:forces:R:3 energy=829.7438795897685 pbc="F F F"
O        0.00000000       0.00000000       0.00000000       0.00000000       0.00000000   -3668.14428711
O        0.00000000       0.00000000       0.23878788       0.00000000       0.00000000    3668.14428711
2
Properties=species:S:1:pos:R:3:forces:R:3 energy=651.8188307632274 pbc="F F F"
O        0.00000000       0.00000000       0.00000000       0.00000000       0.00000000   -2693.40576172
O        0.00000000       0.00000000       0.29757576       0.00000000       0.00000000    2693.40576172
2
Properties=species:S:1:pos:R:3:forces:R:3 energy=490.06507710586976 pbc="F F F"
O        0.00000000       0.00000000       0.00000000       0.00000000       0.00000000   -2864.04980469
O        0.00000000       0.00000000       0.35636364       0.00000000       0.00000000    2864.04980469
2
Properties=species:S:1:pos:R:3:forces:R:3 energy=334.58585958766025 pbc="F F F"
O        0.00000000       0.00000000       0.00000000       0.00000000       0.00000000   -2309.51660156
O        0.00000000       0.00000000       0.41515152       0.00000000       0.00000000    2309.51660156
2
Properties=species:S:1:pos:R:3:forces:R:3 energy=221.31640465378032 pbc="F F F"
O        0.00000000       0.00000000       0.00000000       0.00000000       0.00000000   -1524.57751465
O        0.00000000       0.00000000       0.47393939       0.00000000       0.00000000    1524.57751465
2
Properties=species:S:1:pos:R:3:forces:R:3 energy=147.93353115980577 pbc="F F F"
O        0.00000000       0.00000000       0.00000000       0.00000000       0.00000000   -1048.23229980
O        0.00000000       0.00000000       0.53272727       0.00000000       0.00000000    1048.23229980
2
Properties=species:S:1:pos:R:3:forces:R:3 energy=95.64580387750061 pbc="F F F"
O        0.00000000       0.00000000       0.00000000       0.00000000       0.00000000    -732.36376953
O        0.00000000       0.00000000       0.59151515       0.00000000       0.00000000     732.36376953
2
Properties=species:S:1:pos:R:3:forces:R:3 energy=60.12557465669433 pbc="F F F"
O        0.00000000       0.00000000       0.00000000       0.00000000       0.00000000    -497.65567017
O        0.00000000       0.00000000       0.65030303       0.00000000       0.00000000     497.65567017
2
Properties=species:S:1:pos:R:3:forces:R:3 energy=35.809218185452245 pbc="F F F"
O        0.00000000       0.00000000       0.00000000       0.00000000       0.00000000    -334.47125244
O        0.00000000       0.00000000       0.70909091       0.00000000       0.00000000     334.47125244
2
Properties=species:S:1:pos:R:3:forces:R:3 energy=19.768639628393153 pbc="F F F"
O        0.00000000       0.00000000       0.00000000       0.00000000       0.00000000    -220.60565186
O        0.00000000       0.00000000       0.76787879       0.00000000       0.00000000     220.60565186
2
Properties=species:S:1:pos:R:3:forces:R:3 energy=9.104830271823436 pbc="F F F"
O        0.00000000       0.00000000       0.00000000       0.00000000       0.00000000    -147.10586548
O        0.00000000       0.00000000       0.82666667       0.00000000       0.00000000     147.10586548
2
Properties=species:S:1:pos:R:3:forces:R:3 energy=1.9817823297795902 pbc="F F F"
O        0.00000000       0.00000000       0.00000000       0.00000000       0.00000000     -98.39825439
O        0.00000000       0.00000000       0.88545455       0.00000000       0.00000000      98.39825439
2
Properties=species:S:1:pos:R:3:forces:R:3 energy=-2.744086725567206 pbc="F F F"
O        0.00000000       0.00000000       0.00000000       0.00000000       0.00000000     -64.30255890
O        0.00000000       0.00000000       0.94424242       0.00000000       0.00000000      64.30255890
2
Properties=species:S:1:pos:R:3:forces:R:3 energy=-5.7756460005975345 pbc="F F F"
O        0.00000000       0.00000000       0.00000000       0.00000000       0.00000000     -40.28311539
O        0.00000000       0.00000000       1.00303030       0.00000000       0.00000000      40.28311539
2
Properties=species:S:1:pos:R:3:forces:R:3 energy=-7.626823600591841 pbc="F F F"
O        0.00000000       0.00000000       0.00000000       0.00000000       0.00000000     -23.74906349
O        0.00000000       0.00000000       1.06181818       0.00000000       0.00000000      23.74906349
2
Properties=species:S:1:pos:R:3:forces:R:3 energy=-8.672076356549823 pbc="F F F"
O        0.00000000       0.00000000       0.00000000       0.00000000       0.00000000     -12.54609203
O        0.00000000       0.00000000       1.12060606       0.00000000       0.00000000      12.54609203
2
Properties=species:S:1:pos:R:3:forces:R:3 energy=-9.173877402574202 pbc="F F F"
O        0.00000000       0.00000000       0.00000000       0.00000000       0.00000000      -5.03190899
O        0.00000000       0.00000000       1.17939394       0.00000000       0.00000000       5.03190899
2
Properties=species:S:1:pos:R:3:forces:R:3 energy=-9.31378557100523 pbc="F F F"
O        0.00000000       0.00000000       0.00000000       0.00000000       0.00000000      -0.08650631
O        0.00000000       0.00000000       1.23818182       0.00000000       0.00000000       0.08650631
2
Properties=species:S:1:pos:R:3:forces:R:3 energy=-9.219557624477169 pbc="F F F"
O        0.00000000       0.00000000       0.00000000       0.00000000       0.00000000       3.04477406
O        0.00000000       0.00000000       1.29696970       0.00000000       0.00000000      -3.04477406
2
Properties=species:S:1:pos:R:3:forces:R:3 energy=-8.97844949056619 pbc="F F F"
O        0.00000000       0.00000000       0.00000000       0.00000000       0.00000000       5.02226734
O        0.00000000       0.00000000       1.35575758       0.00000000       0.00000000      -5.02226734
2
Properties=species:S:1:pos:R:3:forces:R:3 energy=-8.640095006830064 pbc="F F F"
O        0.00000000       0.00000000       0.00000000       0.00000000       0.00000000       6.42470932
O        0.00000000       0.00000000       1.41454545       0.00000000       0.00000000      -6.42470932
2
Properties=species:S:1:pos:R:3:forces:R:3 energy=-8.228294930357404 pbc="F F F"
O        0.00000000       0.00000000       0.00000000       0.00000000       0.00000000       7.55527782
O        0.00000000       0.00000000       1.47333333       0.00000000       0.00000000      -7.55527782
2
Properties=species:S:1:pos:R:3:forces:R:3 energy=-7.754372742976708 pbc="F F F"
O        0.00000000       0.00000000       0.00000000       0.00000000       0.00000000       8.54506302
O        0.00000000       0.00000000       1.53212121       0.00000000       0.00000000      -8.54506302
2
Properties=species:S:1:pos:R:3:forces:R:3 energy=-7.228802464946641 pbc="F F F"
O        0.00000000       0.00000000       0.00000000       0.00000000       0.00000000       9.25527477
O        0.00000000       0.00000000       1.59090909       0.00000000       0.00000000      -9.25527477
2
Properties=species:S:1:pos:R:3:forces:R:3 energy=-6.680198473738649 pbc="F F F"
O        0.00000000       0.00000000       0.00000000       0.00000000       0.00000000       9.26482487
O        0.00000000       0.00000000       1.64969697       0.00000000       0.00000000      -9.26482487
2
Properties=species:S:1:pos:R:3:forces:R:3 energy=-6.154549216218627 pbc="F F F"
O        0.00000000       0.00000000       0.00000000       0.00000000       0.00000000       8.52838802
O        0.00000000       0.00000000       1.70848485       0.00000000       0.00000000      -8.52838802
2
Properties=species:S:1:pos:R:3:forces:R:3 energy=-5.682787165042812 pbc="F F F"
O        0.00000000       0.00000000       0.00000000       0.00000000       0.00000000       7.50860405
O        0.00000000       0.00000000       1.76727273       0.00000000       0.00000000      -7.50860405
2
Properties=species:S:1:pos:R:3:forces:R:3 energy=-5.2719224829536495 pbc="F F F"
O        0.00000000       0.00000000       0.00000000       0.00000000       0.00000000       6.47007990
O        0.00000000       0.00000000       1.82606061       0.00000000       0.00000000      -6.47007990
2
Properties=species:S:1:pos:R:3:forces:R:3 energy=-4.921683405524064 pbc="F F F"
O        0.00000000       0.00000000       0.00000000       0.00000000       0.00000000       5.45437193
O        0.00000000       0.00000000       1.88484848       0.00000000       0.00000000      -5.45437193
2
Properties=species:S:1:pos:R:3:forces:R:3 energy=-4.628490133432533 pbc="F F F"
O        0.00000000       0.00000000       0.00000000       0.00000000       0.00000000       4.54664516
O        0.00000000       0.00000000       1.94363636       0.00000000       0.00000000      -4.54664516
2
Properties=species:S:1:pos:R:3:forces:R:3 energy=-4.383505187083233 pbc="F F F"
O        0.00000000       0.00000000       0.00000000       0.00000000       0.00000000       3.81936145
O        0.00000000       0.00000000       2.00242424       0.00000000       0.00000000      -3.81936145
2
Properties=species:S:1:pos:R:3:forces:R:3 energy=-4.176149562287363 pbc="F F F"
O        0.00000000       0.00000000       0.00000000       0.00000000       0.00000000       3.25770569
O        0.00000000       0.00000000       2.06121212       0.00000000       0.00000000      -3.25770569
2
Properties=species:S:1:pos:R:3:forces:R:3 energy=-3.998459153731343 pbc="F F F"
O        0.00000000       0.00000000       0.00000000       0.00000000       0.00000000       2.79952312
O        0.00000000       0.00000000       2.12000000       0.00000000       0.00000000      -2.79952312
2
Properties=species:S:1:pos:R:3:forces:R:3 energy=-3.8460282006134037 pbc="F F F"
O        0.00000000       0.00000000       0.00000000       0.00000000       0.00000000       2.39181900
O        0.00000000       0.00000000       2.17878788       0.00000000       0.00000000      -2.39181900
2
Properties=species:S:1:pos:R:3:forces:R:3 energy=-3.716715430828589 pbc="F F F"
O        0.00000000       0.00000000       0.00000000       0.00000000       0.00000000       2.01156235
O        0.00000000       0.00000000       2.23757576       0.00000000       0.00000000      -2.01156235
2
Properties=species:S:1:pos:R:3:forces:R:3 energy=-3.608994849093148 pbc="F F F"
O        0.00000000       0.00000000       0.00000000       0.00000000       0.00000000       1.65821087
O        0.00000000       0.00000000       2.29636364       0.00000000       0.00000000      -1.65821087
2
Properties=species:S:1:pos:R:3:forces:R:3 energy=-3.5210780777251642 pbc="F F F"
O        0.00000000       0.00000000       0.00000000       0.00000000       0.00000000       1.33911014
O        0.00000000       0.00000000       2.35515152       0.00000000       0.00000000      -1.33911014
2
Properties=species:S:1:pos:R:3:forces:R:3 energy=-3.450760199610277 pbc="F F F"
O        0.00000000       0.00000000       0.00000000       0.00000000       0.00000000       1.06008792
O        0.00000000       0.00000000       2.41393939       0.00000000       0.00000000      -1.06008792
2
Properties=species:S:1:pos:R:3:forces:R:3 energy=-3.3956124811930577 pbc="F F F"
O        0.00000000       0.00000000       0.00000000       0.00000000       0.00000000       0.82306057
O        0.00000000       0.00000000       2.47272727       0.00000000       0.00000000      -0.82306057
2
Properties=species:S:1:pos:R:3:forces:R:3 energy=-3.353182441302878 pbc="F F F"
O        0.00000000       0.00000000       0.00000000       0.00000000       0.00000000       0.62708676
O        0.00000000       0.00000000       2.53151515       0.00000000       0.00000000      -0.62708676
2
Properties=species:S:1:pos:R:3:forces:R:3 energy=-3.3211259881077497 pbc="F F F"
O        0.00000000       0.00000000       0.00000000       0.00000000       0.00000000       0.46966761
O        0.00000000       0.00000000       2.59030303       0.00000000       0.00000000      -0.46966761
2
Properties=species:S:1:pos:R:3:forces:R:3 energy=-3.2972749153308802 pbc="F F F"
O        0.00000000       0.00000000       0.00000000       0.00000000       0.00000000       0.34723374
O        0.00000000       0.00000000       2.64909091       0.00000000       0.00000000      -0.34723374
2
Properties=species:S:1:pos:R:3:forces:R:3 energy=-3.279702514085299 pbc="F F F"
O        0.00000000       0.00000000       0.00000000       0.00000000       0.00000000       0.25524905
O        0.00000000       0.00000000       2.70787879       0.00000000       0.00000000      -0.25524905
2
Properties=species:S:1:pos:R:3:forces:R:3 energy=-3.266769602706782 pbc="F F F"
O        0.00000000       0.00000000       0.00000000       0.00000000       0.00000000       0.18846665
O        0.00000000       0.00000000       2.76666667       0.00000000       0.00000000      -0.18846665
2
Properties=species:S:1:pos:R:3:forces:R:3 energy=-3.257156482763004 pbc="F F F"
O        0.00000000       0.00000000       0.00000000       0.00000000       0.00000000       0.14142965
O        0.00000000       0.00000000       2.82545455       0.00000000       0.00000000      -0.14142965
2
Properties=species:S:1:pos:R:3:forces:R:3 energy=-3.249854854204651 pbc="F F F"
O        0.00000000       0.00000000       0.00000000       0.00000000       0.00000000       0.10902900
O        0.00000000       0.00000000       2.88424242       0.00000000       0.00000000      -0.10902900
2
Properties=species:S:1:pos:R:3:forces:R:3 energy=-3.244136086687466 pbc="F F F"
O        0.00000000       0.00000000       0.00000000       0.00000000       0.00000000       0.08692960
O        0.00000000       0.00000000       2.94303030       0.00000000       0.00000000      -0.08692960
2
Properties=species:S:1:pos:R:3:forces:R:3 energy=-3.23949923798636 pbc="F F F"
O        0.00000000       0.00000000       0.00000000       0.00000000       0.00000000       0.07175040
O        0.00000000       0.00000000       3.00181818       0.00000000       0.00000000      -0.07175040
2
Properties=species:S:1:pos:R:3:forces:R:3 energy=-3.2356123570915325 pbc="F F F"
O        0.00000000       0.00000000       0.00000000       0.00000000       0.00000000       0.06106776
O        0.00000000       0.00000000       3.06060606       0.00000000       0.00000000      -0.06106776
2
Properties=species:S:1:pos:R:3:forces:R:3 energy=-3.232262629382862 pbc="F F F"
O        0.00000000       0.00000000       0.00000000       0.00000000       0.00000000       0.05328585
O        0.00000000       0.00000000       3.11939394       0.00000000       0.00000000      -0.05328585
2
Properties=species:S:1:pos:R:3:forces:R:3 energy=-3.2293093392696908 pbc="F F F"
O        0.00000000       0.00000000       0.00000000       0.00000000       0.00000000       0.04745131
O        0.00000000       0.00000000       3.17818182       0.00000000       0.00000000      -0.04745131
2
Properties=species:S:1:pos:R:3:forces:R:3 energy=-3.2266549803610665 pbc="F F F"
O        0.00000000       0.00000000       0.00000000       0.00000000       0.00000000       0.04307121
O        0.00000000       0.00000000       3.23696970       0.00000000       0.00000000      -0.04307121
2
Properties=species:S:1:pos:R:3:forces:R:3 energy=-3.2242208666826087 pbc="F F F"
O        0.00000000       0.00000000       0.00000000       0.00000000       0.00000000       0.03994729
O        0.00000000       0.00000000       3.29575758       0.00000000       0.00000000      -0.03994729
2
Properties=species:S:1:pos:R:3:forces:R:3 energy=-3.221934439866994 pbc="F F F"
O        0.00000000       0.00000000       0.00000000       0.00000000       0.00000000       0.03804307
O        0.00000000       0.00000000       3.35454545       0.00000000       0.00000000      -0.03804307
2
Properties=species:S:1:pos:R:3:forces:R:3 energy=-3.219723257212372 pbc="F F F"
O        0.00000000       0.00000000       0.00000000       0.00000000       0.00000000       0.03738985
O        0.00000000       0.00000000       3.41333333       0.00000000       0.00000000      -0.03738985
2
Properties=species:S:1:pos:R:3:forces:R:3 energy=-3.217513528304731 pbc="F F F"
O        0.00000000       0.00000000       0.00000000       0.00000000       0.00000000       0.03801536
O        0.00000000       0.00000000       3.47212121       0.00000000       0.00000000      -0.03801536
2
Properties=species:S:1:pos:R:3:forces:R:3 energy=-3.2152291146182104 pbc="F F F"
O        0.00000000       0.00000000       0.00000000       0.00000000       0.00000000       0.03990180
O        0.00000000       0.00000000       3.53090909       0.00000000       0.00000000      -0.03990180
2
Properties=species:S:1:pos:R:3:forces:R:3 energy=-3.2127986690052026 pbc="F F F"
O        0.00000000       0.00000000       0.00000000       0.00000000       0.00000000       0.04295498
O        0.00000000       0.00000000       3.58969697       0.00000000       0.00000000      -0.04295498
2
Properties=species:S:1:pos:R:3:forces:R:3 energy=-3.2101594484137332 pbc="F F F"
O        0.00000000       0.00000000       0.00000000       0.00000000       0.00000000       0.04698679
O        0.00000000       0.00000000       3.64848485       0.00000000       0.00000000      -0.04698679
2
Properties=species:S:1:pos:R:3:forces:R:3 energy=-3.2072606450159444 pbc="F F F"
O        0.00000000       0.00000000       0.00000000       0.00000000       0.00000000       0.05171887
O        0.00000000       0.00000000       3.70727273       0.00000000       0.00000000      -0.05171887
2
Properties=species:S:1:pos:R:3:forces:R:3 energy=-3.2040715082788958 pbc="F F F"
O        0.00000000       0.00000000       0.00000000       0.00000000       0.00000000       0.05679760
O        0.00000000       0.00000000       3.76606061       0.00000000       0.00000000      -0.05679760
2
Properties=species:S:1:pos:R:3:forces:R:3 energy=-3.200583269142253 pbc="F F F"
O        0.00000000       0.00000000       0.00000000       0.00000000       0.00000000       0.06183513
O        0.00000000       0.00000000       3.82484848       0.00000000       0.00000000      -0.06183513
2
Properties=species:S:1:pos:R:3:forces:R:3 energy=-3.1968093956618975 pbc="F F F"
O        0.00000000       0.00000000       0.00000000       0.00000000       0.00000000       0.06645967
O        0.00000000       0.00000000       3.88363636       0.00000000       0.00000000      -0.06645967
2
Properties=species:S:1:pos:R:3:forces:R:3 energy=-3.1927832401063827 pbc="F F F"
O        0.00000000       0.00000000       0.00000000       0.00000000       0.00000000       0.07036853
O        0.00000000       0.00000000       3.94242424       0.00000000       0.00000000      -0.07036853
2
Properties=species:S:1:pos:R:3:forces:R:3 energy=-3.188553765241507 pbc="F F F"
O        0.00000000       0.00000000       0.00000000       0.00000000       0.00000000       0.07336558
O        0.00000000       0.00000000       4.00121212       0.00000000       0.00000000      -0.07336558
2
Properties=species:S:1:pos:R:3:forces:R:3 energy=-3.184176746601554 pbc="F F F"
O        0.00000000       0.00000000       0.00000000       0.00000000       0.00000000       0.07537403
O        0.00000000       0.00000000       4.06000000       0.00000000       0.00000000      -0.07537403
2
Properties=species:S:1:pos:R:3:forces:R:3 energy=-3.1797102692647887 pbc="F F F"
O        0.00000000       0.00000000       0.00000000       0.00000000       0.00000000       0.07642331
O        0.00000000       0.00000000       4.11878788       0.00000000       0.00000000      -0.07642331
2
Properties=species:S:1:pos:R:3:forces:R:3 energy=-3.175208305994956 pbc="F F F"
O        0.00000000       0.00000000       0.00000000       0.00000000       0.00000000       0.07661459
O        0.00000000       0.00000000       4.17757576       0.00000000       0.00000000      -0.07661459
2
Properties=species:S:1:pos:R:3:forces:R:3 energy=-3.17071644253591 pbc="F F F"
O        0.00000000       0.00000000       0.00000000       0.00000000       0.00000000       0.07609231
O        0.00000000       0.00000000       4.23636364       0.00000000       0.00000000      -0.07609231
2
Properties=species:S:1:pos:R:3:forces:R:3 energy=-3.1662723702878837 pbc="F F F"
O        0.00000000       0.00000000       0.00000000       0.00000000       0.00000000       0.07501559
O        0.00000000       0.00000000       4.29515152       0.00000000       0.00000000      -0.07501559
2
Properties=species:S:1:pos:R:3:forces:R:3 energy=-3.16190375905224 pbc="F F F"
O        0.00000000       0.00000000       0.00000000       0.00000000       0.00000000       0.07355958
O        0.00000000       0.00000000       4.35393939       0.00000000       0.00000000      -0.07355958
2
Properties=species:S:1:pos:R:3:forces:R:3 energy=-3.1576275389048907 pbc="F F F"
O        0.00000000       0.00000000       0.00000000       0.00000000       0.00000000       0.07190857
O        0.00000000       0.00000000       4.41272727       0.00000000       0.00000000      -0.07190857
2
Properties=species:S:1:pos:R:3:forces:R:3 energy=-3.153449201373642 pbc="F F F"
O        0.00000000       0.00000000       0.00000000       0.00000000       0.00000000       0.07024984
O        0.00000000       0.00000000       4.47151515       0.00000000       0.00000000      -0.07024984
2
Properties=species:S:1:pos:R:3:forces:R:3 energy=-3.149364714310401 pbc="F F F"
O        0.00000000       0.00000000       0.00000000       0.00000000       0.00000000       0.06873719
O        0.00000000       0.00000000       4.53030303       0.00000000       0.00000000      -0.06873719
2
Properties=species:S:1:pos:R:3:forces:R:3 energy=-3.1453631429116364 pbc="F F F"
O        0.00000000       0.00000000       0.00000000       0.00000000       0.00000000       0.06744162
O        0.00000000       0.00000000       4.58909091       0.00000000       0.00000000      -0.06744162
2
Properties=species:S:1:pos:R:3:forces:R:3 energy=-3.1414321399783263 pbc="F F F"
O        0.00000000       0.00000000       0.00000000       0.00000000       0.00000000       0.06630452
O        0.00000000       0.00000000       4.64787879       0.00000000       0.00000000      -0.06630452
2
Properties=species:S:1:pos:R:3:forces:R:3 energy=-3.1375684401942183 pbc="F F F"
O        0.00000000       0.00000000       0.00000000       0.00000000       0.00000000       0.06510953
O        0.00000000       0.00000000       4.70666667       0.00000000       0.00000000      -0.06510953
2
Properties=species:S:1:pos:R:3:forces:R:3 energy=-3.1337847716907734 pbc="F F F"
O        0.00000000       0.00000000       0.00000000       0.00000000       0.00000000       0.06351330
O        0.00000000       0.00000000       4.76545455       0.00000000       0.00000000      -0.06351330
2
Properties=species:S:1:pos:R:3:forces:R:3 energy=-3.1301165355291647 pbc="F F F"
O        0.00000000       0.00000000       0.00000000       0.00000000       0.00000000       0.06110646
O        0.00000000       0.00000000       4.82424242       0.00000000       0.00000000      -0.06110646
2
Properties=species:S:1:pos:R:3:forces:R:3 energy=-3.1266234743828476 pbc="F F F"
O        0.00000000       0.00000000       0.00000000       0.00000000       0.00000000       0.05752241
O        0.00000000       0.00000000       4.88303030       0.00000000       0.00000000      -0.05752241
2
Properties=species:S:1:pos:R:3:forces:R:3 energy=-3.1233806103051838 pbc="F F F"
O        0.00000000       0.00000000       0.00000000       0.00000000       0.00000000       0.05255897
O        0.00000000       0.00000000       4.94181818       0.00000000       0.00000000      -0.05255897
2
Properties=species:S:1:pos:R:3:forces:R:3 energy=-3.120468709174211 pbc="F F F"
O        0.00000000       0.00000000       0.00000000       0.00000000       0.00000000       0.04631661
O        0.00000000       0.00000000       5.00060606       0.00000000       0.00000000      -0.04631661
2
Properties=species:S:1:pos:R:3:forces:R:3 energy=-3.117950200812132 pbc="F F F"
O        0.00000000       0.00000000       0.00000000       0.00000000       0.00000000       0.03929461
O        0.00000000       0.00000000       5.05939394       0.00000000       0.00000000      -0.03929461
2
Properties=species:S:1:pos:R:3:forces:R:3 energy=-3.115846763679098 pbc="F F F"
O        0.00000000       0.00000000       0.00000000       0.00000000       0.00000000       0.03237931
O        0.00000000       0.00000000       5.11818182       0.00000000       0.00000000      -0.03237931
2
Properties=species:S:1:pos:R:3:forces:R:3 energy=-3.114120491191387 pbc="F F F"
O        0.00000000       0.00000000       0.00000000       0.00000000       0.00000000       0.02662087
O        0.00000000       0.00000000       5.17696970       0.00000000       0.00000000      -0.02662087
2
Properties=species:S:1:pos:R:3:forces:R:3 energy=-3.1126791345542735 pbc="F F F"
O        0.00000000       0.00000000       0.00000000       0.00000000       0.00000000       0.02275524
O        0.00000000       0.00000000       5.23575758       0.00000000       0.00000000      -0.02275524
2
Properties=species:S:1:pos:R:3:forces:R:3 energy=-3.1114099582002623 pbc="F F F"
O        0.00000000       0.00000000       0.00000000       0.00000000       0.00000000       0.02065935
O        0.00000000       0.00000000       5.29454545       0.00000000       0.00000000      -0.02065935
2
Properties=species:S:1:pos:R:3:forces:R:3 energy=-3.110235289783605 pbc="F F F"
O        0.00000000       0.00000000       0.00000000       0.00000000       0.00000000       0.01932958
O        0.00000000       0.00000000       5.35333333       0.00000000       0.00000000      -0.01932958
2
Properties=species:S:1:pos:R:3:forces:R:3 energy=-3.109131115171314 pbc="F F F"
O        0.00000000       0.00000000       0.00000000       0.00000000       0.00000000       0.01842437
O        0.00000000       0.00000000       5.41212121       0.00000000       0.00000000      -0.01842437
2
Properties=species:S:1:pos:R:3:forces:R:3 energy=-3.1080100144753473 pbc="F F F"
O        0.00000000       0.00000000       0.00000000       0.00000000       0.00000000       0.02053822
O        0.00000000       0.00000000       5.47090909       0.00000000       0.00000000      -0.02053822
2
Properties=species:S:1:pos:R:3:forces:R:3 energy=-3.1066269859961544 pbc="F F F"
O        0.00000000       0.00000000       0.00000000       0.00000000       0.00000000       0.02678697
O        0.00000000       0.00000000       5.52969697       0.00000000       0.00000000      -0.02678697
2
Properties=species:S:1:pos:R:3:forces:R:3 energy=-3.10491799864986 pbc="F F F"
O        0.00000000       0.00000000       0.00000000       0.00000000       0.00000000       0.03032948
O        0.00000000       0.00000000       5.58848485       0.00000000       0.00000000      -0.03032948
2
Properties=species:S:1:pos:R:3:forces:R:3 energy=-3.103180952387512 pbc="F F F"
O        0.00000000       0.00000000       0.00000000       0.00000000       0.00000000       0.02796504
O        0.00000000       0.00000000       5.64727273       0.00000000       0.00000000      -0.02796504
2
Properties=species:S:1:pos:R:3:forces:R:3 energy=-3.101675609171248 pbc="F F F"
O        0.00000000       0.00000000       0.00000000       0.00000000       0.00000000       0.02350580
O        0.00000000       0.00000000       5.70606061       0.00000000       0.00000000      -0.02350580
2
Properties=species:S:1:pos:R:3:forces:R:3 energy=-3.10031460281751 pbc="F F F"
O        0.00000000       0.00000000       0.00000000       0.00000000       0.00000000       0.02369935
O        0.00000000       0.00000000       5.76484848       0.00000000       0.00000000      -0.02369935
2
Properties=species:S:1:pos:R:3:forces:R:3 energy=-3.0988815916999424 pbc="F F F"
O        0.00000000       0.00000000       0.00000000       0.00000000       0.00000000       0.02401845
O        0.00000000       0.00000000       5.82363636       0.00000000       0.00000000      -0.02401845
2
Properties=species:S:1:pos:R:3:forces:R:3 energy=-3.0976816623563046 pbc="F F F"
O        0.00000000       0.00000000       0.00000000       0.00000000       0.00000000       0.01560429
O        0.00000000       0.00000000       5.88242424       0.00000000       0.00000000      -0.01560429
2
Properties=species:S:1:pos:R:3:forces:R:3 energy=-3.097094295568358 pbc="F F F"
O        0.00000000       0.00000000       0.00000000       0.00000000       0.00000000       0.00476532
O        0.00000000       0.00000000       5.94121212       0.00000000       0.00000000      -0.00476532
2
Properties=species:S:1:pos:R:3:forces:R:3 energy=-3.096991862185256 pbc="F F F"
O        0.00000000       0.00000000       0.00000000       0.00000000       0.00000000       0.00021801
O        0.00000000       0.00000000       6.00000000       0.00000000       0.00000000      -0.00021801
