2
Properties=species:S:1:pos:R:3:forces:R:3 energy=21105.152916617524 pbc="F F F"
Os       0.00000000       0.00000000       0.00000000       0.00000000       0.00000000 -270474.12500000
Os       0.00000000       0.00000000       0.18000000       0.00000000       0.00000000  270474.12500000
2
Properties=species:S:1:pos:R:3:forces:R:3 energy=11632.638268180026 pbc="F F F"
Os       0.00000000       0.00000000       0.00000000       0.00000000       0.00000000  -90328.92187500
Os       0.00000000       0.00000000       0.23878788       0.00000000       0.00000000   90328.92187500
2
Properties=species:S:1:pos:R:3:forces:R:3 energy=8163.1407095926115 pbc="F F F"
Os       0.00000000       0.00000000       0.00000000       0.00000000       0.00000000  -37486.37109375
Os       0.00000000       0.00000000       0.29757576       0.00000000       0.00000000   37486.37109375
2
Properties=species:S:1:pos:R:3:forces:R:3 energy=6560.1866080301115 pbc="F F F"
Os       0.00000000       0.00000000       0.00000000       0.00000000       0.00000000  -20242.30078125
Os       0.00000000       0.00000000       0.35636364       0.00000000       0.00000000   20242.30078125
2
Properties=species:S:1:pos:R:3:forces:R:3 energy=5549.1778189676115 pbc="F F F"
Os       0.00000000       0.00000000       0.00000000       0.00000000       0.00000000  -15346.19921875
Os       0.00000000       0.00000000       0.41515152       0.00000000       0.00000000   15346.19921875
2
Properties=species:S:1:pos:R:3:forces:R:3 energy=4627.742272098947 pbc="F F F"
Os       0.00000000       0.00000000       0.00000000       0.00000000       0.00000000  -17164.56835938
Os       0.00000000       0.00000000       0.47393939       0.00000000       0.00000000   17164.56835938
2
Properties=species:S:1:pos:R:3:forces:R:3 energy=3611.0703971179537 pbc="F F F"
Os       0.00000000       0.00000000       0.00000000       0.00000000       0.00000000  -17399.86914062
Os       0.00000000       0.00000000       0.53272727       0.00000000       0.00000000   17399.86914062
2
Properties=species:S:1:pos:R:3:forces:R:3 energy=2593.1458365964213 pbc="F F F"
Os       0.00000000       0.00000000       0.00000000       0.00000000       0.00000000  -16181.01855469
Os       0.00000000       0.00000000       0.59151515       0.00000000       0.00000000   16181.01855469
2
Properties=species:S:1:pos:R:3:forces:R:3 energy=1810.9209831188102 pbc="F F F"
Os       0.00000000       0.00000000       0.00000000       0.00000000       0.00000000   -7445.87451172
Os       0.00000000       0.00000000       0.65030303       0.00000000       0.00000000    7445.87451172
2
Properties=species:S:1:pos:R:3:forces:R:3 energy=1398.6938103432753 pbc="F F F"
Os       0.00000000       0.00000000       0.00000000       0.00000000       0.00000000   -6528.25927734
Os       0.00000000       0.00000000       0.70909091       0.00000000       0.00000000    6528.25927734
2
Properties=species:S:1:pos:R:3:forces:R:3 energy=1048.2972039929975 pbc="F F F"
Os       0.00000000       0.00000000       0.00000000       0.00000000       0.00000000   -5320.62207031
Os       0.00000000       0.00000000       0.76787879       0.00000000       0.00000000    5320.62207031
2
Properties=species:S:1:pos:R:3:forces:R:3 energy=787.0719844184905 pbc="F F F"
Os       0.00000000       0.00000000       0.00000000       0.00000000       0.00000000   -3400.21118164
Os       0.00000000       0.00000000       0.82666667       0.00000000       0.00000000    3400.21118164
2
Properties=species:S:1:pos:R:3:forces:R:3 energy=620.9067014307775 pbc="F F F"
Os       0.00000000       0.00000000       0.00000000       0.00000000       0.00000000   -2535.58642578
Os       0.00000000       0.00000000       0.88545455       0.00000000       0.00000000    2535.58642578
2
Properties=species:S:1:pos:R:3:forces:R:3 energy=482.9611450942634 pbc="F F F"
Os       0.00000000       0.00000000       0.00000000       0.00000000       0.00000000   -2163.83447266
Os       0.00000000       0.00000000       0.94424242       0.00000000       0.00000000    2163.83447266
2
Properties=species:S:1:pos:R:3:forces:R:3 energy=366.88442432100965 pbc="F F F"
Os       0.00000000       0.00000000       0.00000000       0.00000000       0.00000000   -1788.50146484
Os       0.00000000       0.00000000       1.00303030       0.00000000       0.00000000    1788.50146484
2
Properties=species:S:1:pos:R:3:forces:R:3 energy=271.45565290589013 pbc="F F F"
Os       0.00000000       0.00000000       0.00000000       0.00000000       0.00000000   -1418.26525879
Os       0.00000000       0.00000000       1.06181818       0.00000000       0.00000000    1418.26525879
2
Properties=species:S:1:pos:R:3:forces:R:3 energy=200.6686053136524 pbc="F F F"
Os       0.00000000       0.00000000       0.00000000       0.00000000       0.00000000   -1024.30175781
Os       0.00000000       0.00000000       1.12060606       0.00000000       0.00000000    1024.30175781
2
Properties=species:S:1:pos:R:3:forces:R:3 energy=149.39278841824785 pbc="F F F"
Os       0.00000000       0.00000000       0.00000000       0.00000000       0.00000000    -733.76513672
Os       0.00000000       0.00000000       1.17939394       0.00000000       0.00000000     733.76513672
2
Properties=species:S:1:pos:R:3:forces:R:3 energy=111.77274879498985 pbc="F F F"
Os       0.00000000       0.00000000       0.00000000       0.00000000       0.00000000    -562.02496338
Os       0.00000000       0.00000000       1.23818182       0.00000000       0.00000000     562.02496338
2
Properties=species:S:1:pos:R:3:forces:R:3 energy=82.0156169235246 pbc="F F F"
Os       0.00000000       0.00000000       0.00000000       0.00000000       0.00000000    -459.96261597
Os       0.00000000       0.00000000       1.29696970       0.00000000       0.00000000     459.96261597
2
Properties=species:S:1:pos:R:3:forces:R:3 energy=57.53585212423459 pbc="F F F"
Os       0.00000000       0.00000000       0.00000000       0.00000000       0.00000000    -369.16543579
Os       0.00000000       0.00000000       1.35575758       0.00000000       0.00000000     369.16543579
2
Properties=species:S:1:pos:R:3:forces:R:3 energy=38.78215061278996 pbc="F F F"
Os       0.00000000       0.00000000       0.00000000       0.00000000       0.00000000    -270.90325928
Os       0.00000000       0.00000000       1.41454545       0.00000000       0.00000000     270.90325928
2
Properties=species:S:1:pos:R:3:forces:R:3 energy=25.13743944098247 pbc="F F F"
Os       0.00000000       0.00000000       0.00000000       0.00000000       0.00000000    -198.11303711
Os       0.00000000       0.00000000       1.47333333       0.00000000       0.00000000     198.11303711
2
Properties=species:S:1:pos:R:3:forces:R:3 energy=15.097245974470654 pbc="F F F"
Os       0.00000000       0.00000000       0.00000000       0.00000000       0.00000000    -145.88433838
Os       0.00000000       0.00000000       1.53212121       0.00000000       0.00000000     145.88433838
2
Properties=species:S:1:pos:R:3:forces:R:3 energy=7.711277793868816 pbc="F F F"
Os       0.00000000       0.00000000       0.00000000       0.00000000       0.00000000    -107.59251404
Os       0.00000000       0.00000000       1.59090909       0.00000000       0.00000000     107.59251404
2
Properties=species:S:1:pos:R:3:forces:R:3 energy=2.23299302045073 pbc="F F F"
Os       0.00000000       0.00000000       0.00000000       0.00000000       0.00000000     -80.17269897
Os       0.00000000       0.00000000       1.64969697       0.00000000       0.00000000      80.17269897
2
Properties=species:S:1:pos:R:3:forces:R:3 energy=-1.8395801411246009 pbc="F F F"
Os       0.00000000       0.00000000       0.00000000       0.00000000       0.00000000     -59.20368576
Os       0.00000000       0.00000000       1.70848485       0.00000000       0.00000000      59.20368576
2
Properties=species:S:1:pos:R:3:forces:R:3 energy=-4.811086870391434 pbc="F F F"
Os       0.00000000       0.00000000       0.00000000       0.00000000       0.00000000     -42.52985382
Os       0.00000000       0.00000000       1.76727273       0.00000000       0.00000000      42.52985382
2
Properties=species:S:1:pos:R:3:forces:R:3 energy=-6.912164940283242 pbc="F F F"
Os       0.00000000       0.00000000       0.00000000       0.00000000       0.00000000     -29.53805161
Os       0.00000000       0.00000000       1.82606061       0.00000000       0.00000000      29.53805161
2
Properties=species:S:1:pos:R:3:forces:R:3 energy=-8.348557532923092 pbc="F F F"
Os       0.00000000       0.00000000       0.00000000       0.00000000       0.00000000     -19.82584953
Os       0.00000000       0.00000000       1.88484848       0.00000000       0.00000000      19.82584953
2
Properties=species:S:1:pos:R:3:forces:R:3 energy=-9.294248684726591 pbc="F F F"
Os       0.00000000       0.00000000       0.00000000       0.00000000       0.00000000     -12.71905804
Os       0.00000000       0.00000000       1.94363636       0.00000000       0.00000000      12.71905804
2
Properties=species:S:1:pos:R:3:forces:R:3 energy=-9.88125464717178 pbc="F F F"
Os       0.00000000       0.00000000       0.00000000       0.00000000       0.00000000      -7.51937056
Os       0.00000000       0.00000000       2.00242424       0.00000000       0.00000000       7.51937056
2
Properties=species:S:1:pos:R:3:forces:R:3 energy=-10.205283490708577 pbc="F F F"
Os       0.00000000       0.00000000       0.00000000       0.00000000       0.00000000      -3.69992805
Os       0.00000000       0.00000000       2.06121212       0.00000000       0.00000000       3.69992805
2
Properties=species:S:1:pos:R:3:forces:R:3 energy=-10.336132657706818 pbc="F F F"
Os       0.00000000       0.00000000       0.00000000       0.00000000       0.00000000      -0.89755297
Os       0.00000000       0.00000000       2.12000000       0.00000000       0.00000000       0.89755297
2
Properties=species:S:1:pos:R:3:forces:R:3 energy=-10.325820065545802 pbc="F F F"
Os       0.00000000       0.00000000       0.00000000       0.00000000       0.00000000       1.13642919
Os       0.00000000       0.00000000       2.17878788       0.00000000       0.00000000      -1.13642919
2
Properties=species:S:1:pos:R:3:forces:R:3 energy=-10.214223740224062 pbc="F F F"
Os       0.00000000       0.00000000       0.00000000       0.00000000       0.00000000       2.57127333
Os       0.00000000       0.00000000       2.23757576       0.00000000       0.00000000      -2.57127333
2
Properties=species:S:1:pos:R:3:forces:R:3 energy=-10.03293964722925 pbc="F F F"
Os       0.00000000       0.00000000       0.00000000       0.00000000       0.00000000       3.52358866
Os       0.00000000       0.00000000       2.29636364       0.00000000       0.00000000      -3.52358866
2
Properties=species:S:1:pos:R:3:forces:R:3 energy=-9.80764534901321 pbc="F F F"
Os       0.00000000       0.00000000       0.00000000       0.00000000       0.00000000       4.08237123
Os       0.00000000       0.00000000       2.35515152       0.00000000       0.00000000      -4.08237123
2
Properties=species:S:1:pos:R:3:forces:R:3 energy=-9.55904409424864 pbc="F F F"
Os       0.00000000       0.00000000       0.00000000       0.00000000       0.00000000       4.33046484
Os       0.00000000       0.00000000       2.41393939       0.00000000       0.00000000      -4.33046484
2
Properties=species:S:1:pos:R:3:forces:R:3 energy=-9.302871017097184 pbc="F F F"
Os       0.00000000       0.00000000       0.00000000       0.00000000       0.00000000       4.35477114
Os       0.00000000       0.00000000       2.47272727       0.00000000       0.00000000      -4.35477114
2
Properties=species:S:1:pos:R:3:forces:R:3 energy=-9.049722716339964 pbc="F F F"
Os       0.00000000       0.00000000       0.00000000       0.00000000       0.00000000       4.24107265
Os       0.00000000       0.00000000       2.53151515       0.00000000       0.00000000      -4.24107265
2
Properties=species:S:1:pos:R:3:forces:R:3 energy=-8.805513452866515 pbc="F F F"
Os       0.00000000       0.00000000       0.00000000       0.00000000       0.00000000       4.06071711
Os       0.00000000       0.00000000       2.59030303       0.00000000       0.00000000      -4.06071711
2
Properties=species:S:1:pos:R:3:forces:R:3 energy=-8.57262584780986 pbc="F F F"
Os       0.00000000       0.00000000       0.00000000       0.00000000       0.00000000       3.86190772
Os       0.00000000       0.00000000       2.64909091       0.00000000       0.00000000      -3.86190772
2
Properties=species:S:1:pos:R:3:forces:R:3 energy=-8.351270730081037 pbc="F F F"
Os       0.00000000       0.00000000       0.00000000       0.00000000       0.00000000       3.67162395
Os       0.00000000       0.00000000       2.70787879       0.00000000       0.00000000      -3.67162395
2
Properties=species:S:1:pos:R:3:forces:R:3 energy=-8.140492841293943 pbc="F F F"
Os       0.00000000       0.00000000       0.00000000       0.00000000       0.00000000       3.50337720
Os       0.00000000       0.00000000       2.76666667       0.00000000       0.00000000      -3.50337720
2
Properties=species:S:1:pos:R:3:forces:R:3 energy=-7.938878205849418 pbc="F F F"
Os       0.00000000       0.00000000       0.00000000       0.00000000       0.00000000       3.35903525
Os       0.00000000       0.00000000       2.82545455       0.00000000       0.00000000      -3.35903525
2
Properties=species:S:1:pos:R:3:forces:R:3 energy=-7.745344116060136 pbc="F F F"
Os       0.00000000       0.00000000       0.00000000       0.00000000       0.00000000       3.22514558
Os       0.00000000       0.00000000       2.88424242       0.00000000       0.00000000      -3.22514558
2
Properties=species:S:1:pos:R:3:forces:R:3 energy=-7.559846636979527 pbc="F F F"
Os       0.00000000       0.00000000       0.00000000       0.00000000       0.00000000       3.08312440
Os       0.00000000       0.00000000       2.94303030       0.00000000       0.00000000      -3.08312440
2
Properties=species:S:1:pos:R:3:forces:R:3 energy=-7.383192764124198 pbc="F F F"
Os       0.00000000       0.00000000       0.00000000       0.00000000       0.00000000       2.92361784
Os       0.00000000       0.00000000       3.00181818       0.00000000       0.00000000      -2.92361784
2
Properties=species:S:1:pos:R:3:forces:R:3 energy=-7.216450710624054 pbc="F F F"
Os       0.00000000       0.00000000       0.00000000       0.00000000       0.00000000       2.74632549
Os       0.00000000       0.00000000       3.06060606       0.00000000       0.00000000      -2.74632549
2
Properties=species:S:1:pos:R:3:forces:R:3 energy=-7.06056346175611 pbc="F F F"
Os       0.00000000       0.00000000       0.00000000       0.00000000       0.00000000       2.55527067
Os       0.00000000       0.00000000       3.11939394       0.00000000       0.00000000      -2.55527067
2
Properties=species:S:1:pos:R:3:forces:R:3 energy=-6.916161819140166 pbc="F F F"
Os       0.00000000       0.00000000       0.00000000       0.00000000       0.00000000       2.35664487
Os       0.00000000       0.00000000       3.17818182       0.00000000       0.00000000      -2.35664487
2
Properties=species:S:1:pos:R:3:forces:R:3 energy=-6.783490766492289 pbc="F F F"
Os       0.00000000       0.00000000       0.00000000       0.00000000       0.00000000       2.15734553
Os       0.00000000       0.00000000       3.23696970       0.00000000       0.00000000      -2.15734553
2
Properties=species:S:1:pos:R:3:forces:R:3 energy=-6.66240520529281 pbc="F F F"
Os       0.00000000       0.00000000       0.00000000       0.00000000       0.00000000       1.96335948
Os       0.00000000       0.00000000       3.29575758       0.00000000       0.00000000      -1.96335948
2
Properties=species:S:1:pos:R:3:forces:R:3 energy=-6.552465715093253 pbc="F F F"
Os       0.00000000       0.00000000       0.00000000       0.00000000       0.00000000       1.77854431
Os       0.00000000       0.00000000       3.35454545       0.00000000       0.00000000      -1.77854431
2
Properties=species:S:1:pos:R:3:forces:R:3 energy=-6.453080018449482 pbc="F F F"
Os       0.00000000       0.00000000       0.00000000       0.00000000       0.00000000       1.60442483
Os       0.00000000       0.00000000       3.41333333       0.00000000       0.00000000      -1.60442483
2
Properties=species:S:1:pos:R:3:forces:R:3 energy=-6.363617450190223 pbc="F F F"
Os       0.00000000       0.00000000       0.00000000       0.00000000       0.00000000       1.44081986
Os       0.00000000       0.00000000       3.47212121       0.00000000       0.00000000      -1.44081986
2
Properties=species:S:1:pos:R:3:forces:R:3 energy=-6.283487285423896 pbc="F F F"
Os       0.00000000       0.00000000       0.00000000       0.00000000       0.00000000       1.28682029
Os       0.00000000       0.00000000       3.53090909       0.00000000       0.00000000      -1.28682029
2
Properties=species:S:1:pos:R:3:forces:R:3 energy=-6.212148005353053 pbc="F F F"
Os       0.00000000       0.00000000       0.00000000       0.00000000       0.00000000       1.14156079
Os       0.00000000       0.00000000       3.58969697       0.00000000       0.00000000      -1.14156079
2
Properties=species:S:1:pos:R:3:forces:R:3 energy=-6.149102541574095 pbc="F F F"
Os       0.00000000       0.00000000       0.00000000       0.00000000       0.00000000       1.00468004
Os       0.00000000       0.00000000       3.64848485       0.00000000       0.00000000      -1.00468004
2
Properties=species:S:1:pos:R:3:forces:R:3 energy=-6.093854479918617 pbc="F F F"
Os       0.00000000       0.00000000       0.00000000       0.00000000       0.00000000       0.87637609
Os       0.00000000       0.00000000       3.70727273       0.00000000       0.00000000      -0.87637609
2
Properties=species:S:1:pos:R:3:forces:R:3 energy=-6.04588185658447 pbc="F F F"
Os       0.00000000       0.00000000       0.00000000       0.00000000       0.00000000       0.75724953
Os       0.00000000       0.00000000       3.76606061       0.00000000       0.00000000      -0.75724953
2
Properties=species:S:1:pos:R:3:forces:R:3 energy=-6.0046248173904395 pbc="F F F"
Os       0.00000000       0.00000000       0.00000000       0.00000000       0.00000000       0.64809012
Os       0.00000000       0.00000000       3.82484848       0.00000000       0.00000000      -0.64809012
2
Properties=species:S:1:pos:R:3:forces:R:3 energy=-5.969472781186846 pbc="F F F"
Os       0.00000000       0.00000000       0.00000000       0.00000000       0.00000000       0.54963058
Os       0.00000000       0.00000000       3.88363636       0.00000000       0.00000000      -0.54963058
2
Properties=species:S:1:pos:R:3:forces:R:3 energy=-5.939780712507541 pbc="F F F"
Os       0.00000000       0.00000000       0.00000000       0.00000000       0.00000000       0.46241370
Os       0.00000000       0.00000000       3.94242424       0.00000000       0.00000000      -0.46241370
2
Properties=species:S:1:pos:R:3:forces:R:3 energy=-5.914879157324982 pbc="F F F"
Os       0.00000000       0.00000000       0.00000000       0.00000000       0.00000000       0.38669848
Os       0.00000000       0.00000000       4.00121212       0.00000000       0.00000000      -0.38669848
2
Properties=species:S:1:pos:R:3:forces:R:3 energy=-5.8940904396745095 pbc="F F F"
Os       0.00000000       0.00000000       0.00000000       0.00000000       0.00000000       0.32243657
Os       0.00000000       0.00000000       4.06000000       0.00000000       0.00000000      -0.32243657
2
Properties=species:S:1:pos:R:3:forces:R:3 energy=-5.87675075455472 pbc="F F F"
Os       0.00000000       0.00000000       0.00000000       0.00000000       0.00000000       0.26926547
Os       0.00000000       0.00000000       4.11878788       0.00000000       0.00000000      -0.26926547
2
Properties=species:S:1:pos:R:3:forces:R:3 energy=-5.8622267716968155 pbc="F F F"
Os       0.00000000       0.00000000       0.00000000       0.00000000       0.00000000       0.22649486
Os       0.00000000       0.00000000       4.17757576       0.00000000       0.00000000      -0.22649486
2
Properties=species:S:1:pos:R:3:forces:R:3 energy=-5.849936193415376 pbc="F F F"
Os       0.00000000       0.00000000       0.00000000       0.00000000       0.00000000       0.19310349
Os       0.00000000       0.00000000       4.23636364       0.00000000       0.00000000      -0.19310349
2
Properties=species:S:1:pos:R:3:forces:R:3 energy=-5.83936443123761 pbc="F F F"
Os       0.00000000       0.00000000       0.00000000       0.00000000       0.00000000       0.16776158
Os       0.00000000       0.00000000       4.29515152       0.00000000       0.00000000      -0.16776158
2
Properties=species:S:1:pos:R:3:forces:R:3 energy=-5.830085135243737 pbc="F F F"
Os       0.00000000       0.00000000       0.00000000       0.00000000       0.00000000       0.14888395
Os       0.00000000       0.00000000       4.35393939       0.00000000       0.00000000      -0.14888395
2
Properties=species:S:1:pos:R:3:forces:R:3 energy=-5.821767286435734 pbc="F F F"
Os       0.00000000       0.00000000       0.00000000       0.00000000       0.00000000       0.13473532
Os       0.00000000       0.00000000       4.41272727       0.00000000       0.00000000      -0.13473532
2
Properties=species:S:1:pos:R:3:forces:R:3 energy=-5.814184698634464 pbc="F F F"
Os       0.00000000       0.00000000       0.00000000       0.00000000       0.00000000       0.12358436
Os       0.00000000       0.00000000       4.47151515       0.00000000       0.00000000      -0.12358436
2
Properties=species:S:1:pos:R:3:forces:R:3 energy=-5.807208414427714 pbc="F F F"
Os       0.00000000       0.00000000       0.00000000       0.00000000       0.00000000       0.11386085
Os       0.00000000       0.00000000       4.53030303       0.00000000       0.00000000      -0.11386085
2
Properties=species:S:1:pos:R:3:forces:R:3 energy=-5.800794142677334 pbc="F F F"
Os       0.00000000       0.00000000       0.00000000       0.00000000       0.00000000       0.10430964
Os       0.00000000       0.00000000       4.58909091       0.00000000       0.00000000      -0.10430964
2
Properties=species:S:1:pos:R:3:forces:R:3 energy=-5.79495794299199 pbc="F F F"
Os       0.00000000       0.00000000       0.00000000       0.00000000       0.00000000       0.09409405
Os       0.00000000       0.00000000       4.64787879       0.00000000       0.00000000      -0.09409405
2
Properties=species:S:1:pos:R:3:forces:R:3 energy=-5.789751821500899 pbc="F F F"
Os       0.00000000       0.00000000       0.00000000       0.00000000       0.00000000       0.08283071
Os       0.00000000       0.00000000       4.70666667       0.00000000       0.00000000      -0.08283071
2
Properties=species:S:1:pos:R:3:forces:R:3 energy=-5.785238366617601 pbc="F F F"
Os       0.00000000       0.00000000       0.00000000       0.00000000       0.00000000       0.07057780
Os       0.00000000       0.00000000       4.76545455       0.00000000       0.00000000      -0.07057780
2
Properties=species:S:1:pos:R:3:forces:R:3 energy=-5.781465391139372 pbc="F F F"
Os       0.00000000       0.00000000       0.00000000       0.00000000       0.00000000       0.05774020
Os       0.00000000       0.00000000       4.82424242       0.00000000       0.00000000      -0.05774020
2
Properties=species:S:1:pos:R:3:forces:R:3 energy=-5.778448743934784 pbc="F F F"
Os       0.00000000       0.00000000       0.00000000       0.00000000       0.00000000       0.04495719
Os       0.00000000       0.00000000       4.88303030       0.00000000       0.00000000      -0.04495719
2
Properties=species:S:1:pos:R:3:forces:R:3 energy=-5.776164480976366 pbc="F F F"
Os       0.00000000       0.00000000       0.00000000       0.00000000       0.00000000       0.03294465
Os       0.00000000       0.00000000       4.94181818       0.00000000       0.00000000      -0.03294465
2
Properties=species:S:1:pos:R:3:forces:R:3 energy=-5.774547008677136 pbc="F F F"
Os       0.00000000       0.00000000       0.00000000       0.00000000       0.00000000       0.02234354
Os       0.00000000       0.00000000       5.00060606       0.00000000       0.00000000      -0.02234354
2
Properties=species:S:1:pos:R:3:forces:R:3 energy=-5.773501383454222 pbc="F F F"
Os       0.00000000       0.00000000       0.00000000       0.00000000       0.00000000       0.01355044
Os       0.00000000       0.00000000       5.05939394       0.00000000       0.00000000      -0.01355044
2
Properties=species:S:1:pos:R:3:forces:R:3 energy=-5.772917523392855 pbc="F F F"
Os       0.00000000       0.00000000       0.00000000       0.00000000       0.00000000       0.00661301
Os       0.00000000       0.00000000       5.11818182       0.00000000       0.00000000      -0.00661301
2
Properties=species:S:1:pos:R:3:forces:R:3 energy=-5.7726935827705885 pbc="F F F"
Os       0.00000000       0.00000000       0.00000000       0.00000000       0.00000000       0.00122375
Os       0.00000000       0.00000000       5.17696970       0.00000000       0.00000000      -0.00122375
2
Properties=species:S:1:pos:R:3:forces:R:3 energy=-5.772753069093753 pbc="F F F"
Os       0.00000000       0.00000000       0.00000000       0.00000000       0.00000000      -0.00311662
Os       0.00000000       0.00000000       5.23575758       0.00000000       0.00000000       0.00311662
2
Properties=species:S:1:pos:R:3:forces:R:3 energy=-5.773047216195864 pbc="F F F"
Os       0.00000000       0.00000000       0.00000000       0.00000000       0.00000000      -0.00679051
Os       0.00000000       0.00000000       5.29454545       0.00000000       0.00000000       0.00679051
2
Properties=species:S:1:pos:R:3:forces:R:3 energy=-5.773539251779227 pbc="F F F"
Os       0.00000000       0.00000000       0.00000000       0.00000000       0.00000000      -0.00981583
Os       0.00000000       0.00000000       5.35333333       0.00000000       0.00000000       0.00981583
2
Properties=species:S:1:pos:R:3:forces:R:3 energy=-5.774185289082568 pbc="F F F"
Os       0.00000000       0.00000000       0.00000000       0.00000000       0.00000000      -0.01203869
Os       0.00000000       0.00000000       5.41212121       0.00000000       0.00000000       0.01203869
2
Properties=species:S:1:pos:R:3:forces:R:3 energy=-5.774942493301336 pbc="F F F"
Os       0.00000000       0.00000000       0.00000000       0.00000000       0.00000000      -0.01362802
Os       0.00000000       0.00000000       5.47090909       0.00000000       0.00000000       0.01362802
2
Properties=species:S:1:pos:R:3:forces:R:3 energy=-5.775773360450847 pbc="F F F"
Os       0.00000000       0.00000000       0.00000000       0.00000000       0.00000000      -0.01441645
Os       0.00000000       0.00000000       5.52969697       0.00000000       0.00000000       0.01441645
2
Properties=species:S:1:pos:R:3:forces:R:3 energy=-5.77660043209145 pbc="F F F"
Os       0.00000000       0.00000000       0.00000000       0.00000000       0.00000000      -0.01338963
Os       0.00000000       0.00000000       5.58848485       0.00000000       0.00000000       0.01338963
2
Properties=species:S:1:pos:R:3:forces:R:3 energy=-5.777324510175203 pbc="F F F"
Os       0.00000000       0.00000000       0.00000000       0.00000000       0.00000000      -0.01124743
Os       0.00000000       0.00000000       5.64727273       0.00000000       0.00000000       0.01124743
2
Properties=species:S:1:pos:R:3:forces:R:3 energy=-5.777936178336182 pbc="F F F"
Os       0.00000000       0.00000000       0.00000000       0.00000000       0.00000000      -0.00970597
Os       0.00000000       0.00000000       5.70606061       0.00000000       0.00000000       0.00970597
2
Properties=species:S:1:pos:R:3:forces:R:3 energy=-5.778455314847393 pbc="F F F"
Os       0.00000000       0.00000000       0.00000000       0.00000000       0.00000000      -0.00746068
Os       0.00000000       0.00000000       5.76484848       0.00000000       0.00000000       0.00746068
2
Properties=species:S:1:pos:R:3:forces:R:3 energy=-5.77874282589056 pbc="F F F"
Os       0.00000000       0.00000000       0.00000000       0.00000000       0.00000000      -0.00179988
Os       0.00000000       0.00000000       5.82363636       0.00000000       0.00000000       0.00179988
2
Properties=species:S:1:pos:R:3:forces:R:3 energy=-5.77863552553155 pbc="F F F"
Os       0.00000000       0.00000000       0.00000000       0.00000000       0.00000000       0.00526444
Os       0.00000000       0.00000000       5.88242424       0.00000000       0.00000000      -0.00526444
2
Properties=species:S:1:pos:R:3:forces:R:3 energy=-5.778171779482599 pbc="F F F"
Os       0.00000000       0.00000000       0.00000000       0.00000000       0.00000000       0.01002131
Os       0.00000000       0.00000000       5.94121212       0.00000000       0.00000000      -0.01002131
2
Properties=species:S:1:pos:R:3:forces:R:3 energy=-5.77752714792506 pbc="F F F"
Os       0.00000000       0.00000000       0.00000000       0.00000000       0.00000000       0.01128462
Os       0.00000000       0.00000000       6.00000000       0.00000000       0.00000000      -0.01128462
