2
Properties=species:S:1:pos:R:3:forces:R:3 energy=18021.542510199975 pbc="F F F"
Pb       0.00000000       0.00000000       0.00000000       0.00000000       0.00000000 -301895.09375000
Pb       0.00000000       0.00000000       0.18000000       0.00000000       0.00000000  301895.09375000
2
Properties=species:S:1:pos:R:3:forces:R:3 energy=7520.784697699977 pbc="F F F"
Pb       0.00000000       0.00000000       0.00000000       0.00000000       0.00000000  -98730.09375000
Pb       0.00000000       0.00000000       0.23878788       0.00000000       0.00000000   98730.09375000
2
Properties=species:S:1:pos:R:3:forces:R:3 energy=3814.4931937937267 pbc="F F F"
Pb       0.00000000       0.00000000       0.00000000       0.00000000       0.00000000  -38201.64062500
Pb       0.00000000       0.00000000       0.29757576       0.00000000       0.00000000   38201.64062500
2
Properties=species:S:1:pos:R:3:forces:R:3 energy=2300.7932426218517 pbc="F F F"
Pb       0.00000000       0.00000000       0.00000000       0.00000000       0.00000000  -16730.29687500
Pb       0.00000000       0.00000000       0.35636364       0.00000000       0.00000000   16730.29687500
2
Properties=species:S:1:pos:R:3:forces:R:3 energy=1599.6244193796642 pbc="F F F"
Pb       0.00000000       0.00000000       0.00000000       0.00000000       0.00000000   -8379.15429688
Pb       0.00000000       0.00000000       0.41515152       0.00000000       0.00000000    8379.15429688
2
Properties=species:S:1:pos:R:3:forces:R:3 energy=1221.4947807141248 pbc="F F F"
Pb       0.00000000       0.00000000       0.00000000       0.00000000       0.00000000   -4976.12500000
Pb       0.00000000       0.00000000       0.47393939       0.00000000       0.00000000    4976.12500000
2
Properties=species:S:1:pos:R:3:forces:R:3 energy=977.79989547289 pbc="F F F"
Pb       0.00000000       0.00000000       0.00000000       0.00000000       0.00000000   -3500.99707031
Pb       0.00000000       0.00000000       0.53272727       0.00000000       0.00000000    3500.99707031
2
Properties=species:S:1:pos:R:3:forces:R:3 energy=796.5874931481469 pbc="F F F"
Pb       0.00000000       0.00000000       0.00000000       0.00000000       0.00000000   -2727.46630859
Pb       0.00000000       0.00000000       0.59151515       0.00000000       0.00000000    2727.46630859
2
Properties=species:S:1:pos:R:3:forces:R:3 energy=652.3652031407626 pbc="F F F"
Pb       0.00000000       0.00000000       0.00000000       0.00000000       0.00000000   -2241.78759766
Pb       0.00000000       0.00000000       0.65030303       0.00000000       0.00000000    2241.78759766
2
Properties=species:S:1:pos:R:3:forces:R:3 energy=526.2706597344164 pbc="F F F"
Pb       0.00000000       0.00000000       0.00000000       0.00000000       0.00000000   -2038.88146973
Pb       0.00000000       0.00000000       0.70909091       0.00000000       0.00000000    2038.88146973
2
Properties=species:S:1:pos:R:3:forces:R:3 energy=418.05425966395984 pbc="F F F"
Pb       0.00000000       0.00000000       0.00000000       0.00000000       0.00000000   -1671.10498047
Pb       0.00000000       0.00000000       0.76787879       0.00000000       0.00000000    1671.10498047
2
Properties=species:S:1:pos:R:3:forces:R:3 energy=332.83077955339206 pbc="F F F"
Pb       0.00000000       0.00000000       0.00000000       0.00000000       0.00000000   -1271.53649902
Pb       0.00000000       0.00000000       0.82666667       0.00000000       0.00000000    1271.53649902
2
Properties=species:S:1:pos:R:3:forces:R:3 energy=259.50903289194696 pbc="F F F"
Pb       0.00000000       0.00000000       0.00000000       0.00000000       0.00000000   -1108.55822754
Pb       0.00000000       0.00000000       0.88545455       0.00000000       0.00000000    1108.55822754
2
Properties=species:S:1:pos:R:3:forces:R:3 energy=204.6006011131942 pbc="F F F"
Pb       0.00000000       0.00000000       0.00000000       0.00000000       0.00000000    -819.73760986
Pb       0.00000000       0.00000000       0.94424242       0.00000000       0.00000000     819.73760986
2
Properties=species:S:1:pos:R:3:forces:R:3 energy=160.67298911895327 pbc="F F F"
Pb       0.00000000       0.00000000       0.00000000       0.00000000       0.00000000    -659.97052002
Pb       0.00000000       0.00000000       1.00303030       0.00000000       0.00000000     659.97052002
2
Properties=species:S:1:pos:R:3:forces:R:3 energy=127.65991275804704 pbc="F F F"
Pb       0.00000000       0.00000000       0.00000000       0.00000000       0.00000000    -468.79678345
Pb       0.00000000       0.00000000       1.06181818       0.00000000       0.00000000     468.79678345
2
Properties=species:S:1:pos:R:3:forces:R:3 energy=104.36290862221236 pbc="F F F"
Pb       0.00000000       0.00000000       0.00000000       0.00000000       0.00000000    -334.60922241
Pb       0.00000000       0.00000000       1.12060606       0.00000000       0.00000000     334.60922241
2
Properties=species:S:1:pos:R:3:forces:R:3 energy=87.26899150729959 pbc="F F F"
Pb       0.00000000       0.00000000       0.00000000       0.00000000       0.00000000    -253.82525635
Pb       0.00000000       0.00000000       1.17939394       0.00000000       0.00000000     253.82525635
2
Properties=species:S:1:pos:R:3:forces:R:3 energy=73.89670089587264 pbc="F F F"
Pb       0.00000000       0.00000000       0.00000000       0.00000000       0.00000000    -205.01536560
Pb       0.00000000       0.00000000       1.23818182       0.00000000       0.00000000     205.01536560
2
Properties=species:S:1:pos:R:3:forces:R:3 energy=62.84256011085751 pbc="F F F"
Pb       0.00000000       0.00000000       0.00000000       0.00000000       0.00000000    -172.80314636
Pb       0.00000000       0.00000000       1.29696970       0.00000000       0.00000000     172.80314636
2
Properties=species:S:1:pos:R:3:forces:R:3 energy=53.44400208010657 pbc="F F F"
Pb       0.00000000       0.00000000       0.00000000       0.00000000       0.00000000    -147.75552368
Pb       0.00000000       0.00000000       1.35575758       0.00000000       0.00000000     147.75552368
2
Properties=species:S:1:pos:R:3:forces:R:3 energy=45.3846129812461 pbc="F F F"
Pb       0.00000000       0.00000000       0.00000000       0.00000000       0.00000000    -127.15695953
Pb       0.00000000       0.00000000       1.41454545       0.00000000       0.00000000     127.15695953
2
Properties=species:S:1:pos:R:3:forces:R:3 energy=38.39567036879543 pbc="F F F"
Pb       0.00000000       0.00000000       0.00000000       0.00000000       0.00000000    -111.55735016
Pb       0.00000000       0.00000000       1.47333333       0.00000000       0.00000000     111.55735016
2
Properties=species:S:1:pos:R:3:forces:R:3 energy=32.16232828313174 pbc="F F F"
Pb       0.00000000       0.00000000       0.00000000       0.00000000       0.00000000    -101.17510223
Pb       0.00000000       0.00000000       1.53212121       0.00000000       0.00000000     101.17510223
2
Properties=species:S:1:pos:R:3:forces:R:3 energy=26.46810657683405 pbc="F F F"
Pb       0.00000000       0.00000000       0.00000000       0.00000000       0.00000000     -92.44499207
Pb       0.00000000       0.00000000       1.59090909       0.00000000       0.00000000      92.44499207
2
Properties=species:S:1:pos:R:3:forces:R:3 energy=21.3264407308813 pbc="F F F"
Pb       0.00000000       0.00000000       0.00000000       0.00000000       0.00000000     -82.16107941
Pb       0.00000000       0.00000000       1.64969697       0.00000000       0.00000000      82.16107941
2
Properties=species:S:1:pos:R:3:forces:R:3 energy=16.831796137227148 pbc="F F F"
Pb       0.00000000       0.00000000       0.00000000       0.00000000       0.00000000     -70.68867493
Pb       0.00000000       0.00000000       1.70848485       0.00000000       0.00000000      70.68867493
2
Properties=species:S:1:pos:R:3:forces:R:3 energy=13.007916564711335 pbc="F F F"
Pb       0.00000000       0.00000000       0.00000000       0.00000000       0.00000000     -59.55590820
Pb       0.00000000       0.00000000       1.76727273       0.00000000       0.00000000      59.55590820
2
Properties=species:S:1:pos:R:3:forces:R:3 energy=9.80564980696086 pbc="F F F"
Pb       0.00000000       0.00000000       0.00000000       0.00000000       0.00000000     -49.61502838
Pb       0.00000000       0.00000000       1.82606061       0.00000000       0.00000000      49.61502838
2
Properties=species:S:1:pos:R:3:forces:R:3 energy=7.147630194640018 pbc="F F F"
Pb       0.00000000       0.00000000       0.00000000       0.00000000       0.00000000     -41.03053284
Pb       0.00000000       0.00000000       1.88484848       0.00000000       0.00000000      41.03053284
2
Properties=species:S:1:pos:R:3:forces:R:3 energy=4.9575182024740965 pbc="F F F"
Pb       0.00000000       0.00000000       0.00000000       0.00000000       0.00000000     -33.66863632
Pb       0.00000000       0.00000000       1.94363636       0.00000000       0.00000000      33.66863632
2
Properties=species:S:1:pos:R:3:forces:R:3 energy=3.1676954690784913 pbc="F F F"
Pb       0.00000000       0.00000000       0.00000000       0.00000000       0.00000000     -27.39674950
Pb       0.00000000       0.00000000       2.00242424       0.00000000       0.00000000      27.39674950
2
Properties=species:S:1:pos:R:3:forces:R:3 energy=1.7165629869351755 pbc="F F F"
Pb       0.00000000       0.00000000       0.00000000       0.00000000       0.00000000     -22.13282585
Pb       0.00000000       0.00000000       2.06121212       0.00000000       0.00000000      22.13282585
2
Properties=species:S:1:pos:R:3:forces:R:3 energy=0.5475486101974101 pbc="F F F"
Pb       0.00000000       0.00000000       0.00000000       0.00000000       0.00000000     -17.77952194
Pb       0.00000000       0.00000000       2.12000000       0.00000000       0.00000000      17.77952194
2
Properties=species:S:1:pos:R:3:forces:R:3 energy=-0.3892813929386859 pbc="F F F"
Pb       0.00000000       0.00000000       0.00000000       0.00000000       0.00000000     -14.21179962
Pb       0.00000000       0.00000000       2.17878788       0.00000000       0.00000000      14.21179962
2
Properties=species:S:1:pos:R:3:forces:R:3 energy=-1.1362661403478924 pbc="F F F"
Pb       0.00000000       0.00000000       0.00000000       0.00000000       0.00000000     -11.30032539
Pb       0.00000000       0.00000000       2.23757576       0.00000000       0.00000000      11.30032539
2
Properties=species:S:1:pos:R:3:forces:R:3 energy=-1.7284957458810521 pbc="F F F"
Pb       0.00000000       0.00000000       0.00000000       0.00000000       0.00000000      -8.92901421
Pb       0.00000000       0.00000000       2.29636364       0.00000000       0.00000000       8.92901421
2
Properties=species:S:1:pos:R:3:forces:R:3 energy=-2.1947484235902284 pbc="F F F"
Pb       0.00000000       0.00000000       0.00000000       0.00000000       0.00000000      -6.99959278
Pb       0.00000000       0.00000000       2.35515152       0.00000000       0.00000000       6.99959278
2
Properties=species:S:1:pos:R:3:forces:R:3 energy=-2.558514640077813 pbc="F F F"
Pb       0.00000000       0.00000000       0.00000000       0.00000000       0.00000000      -5.42960024
Pb       0.00000000       0.00000000       2.41393939       0.00000000       0.00000000       5.42960024
2
Properties=species:S:1:pos:R:3:forces:R:3 energy=-2.8388171900453916 pbc="F F F"
Pb       0.00000000       0.00000000       0.00000000       0.00000000       0.00000000      -4.14974165
Pb       0.00000000       0.00000000       2.47272727       0.00000000       0.00000000       4.14974165
2
Properties=species:S:1:pos:R:3:forces:R:3 energy=-3.050980202749343 pbc="F F F"
Pb       0.00000000       0.00000000       0.00000000       0.00000000       0.00000000      -3.10288763
Pb       0.00000000       0.00000000       2.53151515       0.00000000       0.00000000       3.10288763
2
Properties=species:S:1:pos:R:3:forces:R:3 energy=-3.2073111858636976 pbc="F F F"
Pb       0.00000000       0.00000000       0.00000000       0.00000000       0.00000000      -2.24366975
Pb       0.00000000       0.00000000       2.59030303       0.00000000       0.00000000       2.24366975
2
Properties=species:S:1:pos:R:3:forces:R:3 energy=-3.317765640612083 pbc="F F F"
Pb       0.00000000       0.00000000       0.00000000       0.00000000       0.00000000      -1.53698468
Pb       0.00000000       0.00000000       2.64909091       0.00000000       0.00000000       1.53698468
2
Properties=species:S:1:pos:R:3:forces:R:3 energy=-3.3904738622894137 pbc="F F F"
Pb       0.00000000       0.00000000       0.00000000       0.00000000       0.00000000      -0.95548230
Pb       0.00000000       0.00000000       2.70787879       0.00000000       0.00000000       0.95548230
2
Properties=species:S:1:pos:R:3:forces:R:3 energy=-3.432127314576385 pbc="F F F"
Pb       0.00000000       0.00000000       0.00000000       0.00000000       0.00000000      -0.47720236
Pb       0.00000000       0.00000000       2.76666667       0.00000000       0.00000000       0.47720236
2
Properties=species:S:1:pos:R:3:forces:R:3 energy=-3.4482472955998977 pbc="F F F"
Pb       0.00000000       0.00000000       0.00000000       0.00000000       0.00000000      -0.08408543
Pb       0.00000000       0.00000000       2.82545455       0.00000000       0.00000000       0.08408543
2
Properties=species:S:1:pos:R:3:forces:R:3 energy=-3.4433939700063956 pbc="F F F"
Pb       0.00000000       0.00000000       0.00000000       0.00000000       0.00000000       0.23850141
Pb       0.00000000       0.00000000       2.88424242       0.00000000       0.00000000      -0.23850141
2
Properties=species:S:1:pos:R:3:forces:R:3 energy=-3.421361687631122 pbc="F F F"
Pb       0.00000000       0.00000000       0.00000000       0.00000000       0.00000000       0.50197971
Pb       0.00000000       0.00000000       2.94303030       0.00000000       0.00000000      -0.50197971
2
Properties=species:S:1:pos:R:3:forces:R:3 energy=-3.3853611399643637 pbc="F F F"
Pb       0.00000000       0.00000000       0.00000000       0.00000000       0.00000000       0.71496999
Pb       0.00000000       0.00000000       3.00181818       0.00000000       0.00000000      -0.71496999
2
Properties=species:S:1:pos:R:3:forces:R:3 energy=-3.338159193656196 pbc="F F F"
Pb       0.00000000       0.00000000       0.00000000       0.00000000       0.00000000       0.88403571
Pb       0.00000000       0.00000000       3.06060606       0.00000000       0.00000000      -0.88403571
2
Properties=species:S:1:pos:R:3:forces:R:3 energy=-3.282174228286106 pbc="F F F"
Pb       0.00000000       0.00000000       0.00000000       0.00000000       0.00000000       1.01459575
Pb       0.00000000       0.00000000       3.11939394       0.00000000       0.00000000      -1.01459575
2
Properties=species:S:1:pos:R:3:forces:R:3 energy=-3.2195252887966714 pbc="F F F"
Pb       0.00000000       0.00000000       0.00000000       0.00000000       0.00000000       1.11154628
Pb       0.00000000       0.00000000       3.17818182       0.00000000       0.00000000      -1.11154628
2
Properties=species:S:1:pos:R:3:forces:R:3 energy=-3.152050159484746 pbc="F F F"
Pb       0.00000000       0.00000000       0.00000000       0.00000000       0.00000000       1.17956889
Pb       0.00000000       0.00000000       3.23696970       0.00000000       0.00000000      -1.17956889
2
Properties=species:S:1:pos:R:3:forces:R:3 energy=-3.0813165013267247 pbc="F F F"
Pb       0.00000000       0.00000000       0.00000000       0.00000000       0.00000000       1.22313094
Pb       0.00000000       0.00000000       3.29575758       0.00000000       0.00000000      -1.22313094
2
Properties=species:S:1:pos:R:3:forces:R:3 energy=-3.008634824206748 pbc="F F F"
Pb       0.00000000       0.00000000       0.00000000       0.00000000       0.00000000       1.24653208
Pb       0.00000000       0.00000000       3.35454545       0.00000000       0.00000000      -1.24653208
2
Properties=species:S:1:pos:R:3:forces:R:3 energy=-2.9350655782248536 pbc="F F F"
Pb       0.00000000       0.00000000       0.00000000       0.00000000       0.00000000       1.25405121
Pb       0.00000000       0.00000000       3.41333333       0.00000000       0.00000000      -1.25405121
2
Properties=species:S:1:pos:R:3:forces:R:3 energy=-2.8614207279704176 pbc="F F F"
Pb       0.00000000       0.00000000       0.00000000       0.00000000       0.00000000       1.24967241
Pb       0.00000000       0.00000000       3.47212121       0.00000000       0.00000000      -1.24967241
2
Properties=species:S:1:pos:R:3:forces:R:3 energy=-2.7883140925367704 pbc="F F F"
Pb       0.00000000       0.00000000       0.00000000       0.00000000       0.00000000       1.23605573
Pb       0.00000000       0.00000000       3.53090909       0.00000000       0.00000000      -1.23605573
2
Properties=species:S:1:pos:R:3:forces:R:3 energy=-2.7162542820594435 pbc="F F F"
Pb       0.00000000       0.00000000       0.00000000       0.00000000       0.00000000       1.21405911
Pb       0.00000000       0.00000000       3.58969697       0.00000000       0.00000000      -1.21405911
2
Properties=species:S:1:pos:R:3:forces:R:3 energy=-2.6457317566328635 pbc="F F F"
Pb       0.00000000       0.00000000       0.00000000       0.00000000       0.00000000       1.18379831
Pb       0.00000000       0.00000000       3.64848485       0.00000000       0.00000000      -1.18379831
2
Properties=species:S:1:pos:R:3:forces:R:3 energy=-2.5772201844741365 pbc="F F F"
Pb       0.00000000       0.00000000       0.00000000       0.00000000       0.00000000       1.14585102
Pb       0.00000000       0.00000000       3.70727273       0.00000000       0.00000000      -1.14585102
2
Properties=species:S:1:pos:R:3:forces:R:3 energy=-2.5111331140210313 pbc="F F F"
Pb       0.00000000       0.00000000       0.00000000       0.00000000       0.00000000       1.10151470
Pb       0.00000000       0.00000000       3.76606061       0.00000000       0.00000000      -1.10151470
2
Properties=species:S:1:pos:R:3:forces:R:3 energy=-2.447800615050861 pbc="F F F"
Pb       0.00000000       0.00000000       0.00000000       0.00000000       0.00000000       1.05248737
Pb       0.00000000       0.00000000       3.82484848       0.00000000       0.00000000      -1.05248737
2
Properties=species:S:1:pos:R:3:forces:R:3 energy=-2.3874436651127335 pbc="F F F"
Pb       0.00000000       0.00000000       0.00000000       0.00000000       0.00000000       1.00050807
Pb       0.00000000       0.00000000       3.88363636       0.00000000       0.00000000      -1.00050807
2
Properties=species:S:1:pos:R:3:forces:R:3 energy=-2.3301914528733727 pbc="F F F"
Pb       0.00000000       0.00000000       0.00000000       0.00000000       0.00000000       0.94715494
Pb       0.00000000       0.00000000       3.94242424       0.00000000       0.00000000      -0.94715494
2
Properties=species:S:1:pos:R:3:forces:R:3 energy=-2.27608342453022 pbc="F F F"
Pb       0.00000000       0.00000000       0.00000000       0.00000000       0.00000000       0.89372456
Pb       0.00000000       0.00000000       4.00121212       0.00000000       0.00000000      -0.89372456
2
Properties=species:S:1:pos:R:3:forces:R:3 energy=-2.225093369271955 pbc="F F F"
Pb       0.00000000       0.00000000       0.00000000       0.00000000       0.00000000       0.84120232
Pb       0.00000000       0.00000000       4.06000000       0.00000000       0.00000000      -0.84120232
2
Properties=species:S:1:pos:R:3:forces:R:3 energy=-2.177146270650177 pbc="F F F"
Pb       0.00000000       0.00000000       0.00000000       0.00000000       0.00000000       0.79030943
Pb       0.00000000       0.00000000       4.11878788       0.00000000       0.00000000      -0.79030943
2
Properties=species:S:1:pos:R:3:forces:R:3 energy=-2.132130096635886 pbc="F F F"
Pb       0.00000000       0.00000000       0.00000000       0.00000000       0.00000000       0.74154782
Pb       0.00000000       0.00000000       4.17757576       0.00000000       0.00000000      -0.74154782
2
Properties=species:S:1:pos:R:3:forces:R:3 energy=-2.089908496664864 pbc="F F F"
Pb       0.00000000       0.00000000       0.00000000       0.00000000       0.00000000       0.69528019
Pb       0.00000000       0.00000000       4.23636364       0.00000000       0.00000000      -0.69528019
2
Properties=species:S:1:pos:R:3:forces:R:3 energy=-2.050327192925962 pbc="F F F"
Pb       0.00000000       0.00000000       0.00000000       0.00000000       0.00000000       0.65175861
Pb       0.00000000       0.00000000       4.29515152       0.00000000       0.00000000      -0.65175861
2
Properties=species:S:1:pos:R:3:forces:R:3 energy=-2.0132203272998854 pbc="F F F"
Pb       0.00000000       0.00000000       0.00000000       0.00000000       0.00000000       0.61117721
Pb       0.00000000       0.00000000       4.35393939       0.00000000       0.00000000      -0.61117721
2
Properties=species:S:1:pos:R:3:forces:R:3 energy=-1.9784091975743345 pbc="F F F"
Pb       0.00000000       0.00000000       0.00000000       0.00000000       0.00000000       0.57362157
Pb       0.00000000       0.00000000       4.41272727       0.00000000       0.00000000      -0.57362157
2
Properties=species:S:1:pos:R:3:forces:R:3 energy=-1.9457167094465257 pbc="F F F"
Pb       0.00000000       0.00000000       0.00000000       0.00000000       0.00000000       0.53907764
Pb       0.00000000       0.00000000       4.47151515       0.00000000       0.00000000      -0.53907764
2
Properties=species:S:1:pos:R:3:forces:R:3 energy=-1.9149703662588955 pbc="F F F"
Pb       0.00000000       0.00000000       0.00000000       0.00000000       0.00000000       0.50736493
Pb       0.00000000       0.00000000       4.53030303       0.00000000       0.00000000      -0.50736493
2
Properties=species:S:1:pos:R:3:forces:R:3 energy=-1.886014531716813 pbc="F F F"
Pb       0.00000000       0.00000000       0.00000000       0.00000000       0.00000000       0.47812369
Pb       0.00000000       0.00000000       4.58909091       0.00000000       0.00000000      -0.47812369
2
Properties=species:S:1:pos:R:3:forces:R:3 energy=-1.8587175024184823 pbc="F F F"
Pb       0.00000000       0.00000000       0.00000000       0.00000000       0.00000000       0.45081678
Pb       0.00000000       0.00000000       4.64787879       0.00000000       0.00000000      -0.45081678
2
Properties=species:S:1:pos:R:3:forces:R:3 energy=-1.8329840668439505 pbc="F F F"
Pb       0.00000000       0.00000000       0.00000000       0.00000000       0.00000000       0.42478043
Pb       0.00000000       0.00000000       4.70666667       0.00000000       0.00000000      -0.42478043
2
Properties=species:S:1:pos:R:3:forces:R:3 energy=-1.808761479658826 pbc="F F F"
Pb       0.00000000       0.00000000       0.00000000       0.00000000       0.00000000       0.39934796
Pb       0.00000000       0.00000000       4.76545455       0.00000000       0.00000000      -0.39934796
2
Properties=species:S:1:pos:R:3:forces:R:3 energy=-1.7860292370578248 pbc="F F F"
Pb       0.00000000       0.00000000       0.00000000       0.00000000       0.00000000       0.37397742
Pb       0.00000000       0.00000000       4.82424242       0.00000000       0.00000000      -0.37397742
2
Properties=species:S:1:pos:R:3:forces:R:3 energy=-1.7647953591020384 pbc="F F F"
Pb       0.00000000       0.00000000       0.00000000       0.00000000       0.00000000       0.34845272
Pb       0.00000000       0.00000000       4.88303030       0.00000000       0.00000000      -0.34845272
2
Properties=species:S:1:pos:R:3:forces:R:3 energy=-1.7450589695053529 pbc="F F F"
Pb       0.00000000       0.00000000       0.00000000       0.00000000       0.00000000       0.32300222
Pb       0.00000000       0.00000000       4.94181818       0.00000000       0.00000000      -0.32300222
2
Properties=species:S:1:pos:R:3:forces:R:3 energy=-1.7268006650245713 pbc="F F F"
Pb       0.00000000       0.00000000       0.00000000       0.00000000       0.00000000       0.29834765
Pb       0.00000000       0.00000000       5.00060606       0.00000000       0.00000000      -0.29834765
2
Properties=species:S:1:pos:R:3:forces:R:3 energy=-1.7099428587797294 pbc="F F F"
Pb       0.00000000       0.00000000       0.00000000       0.00000000       0.00000000       0.27557704
Pb       0.00000000       0.00000000       5.05939394       0.00000000       0.00000000      -0.27557704
2
Properties=species:S:1:pos:R:3:forces:R:3 energy=-1.694340251846446 pbc="F F F"
Pb       0.00000000       0.00000000       0.00000000       0.00000000       0.00000000       0.25581065
Pb       0.00000000       0.00000000       5.11818182       0.00000000       0.00000000      -0.25581065
2
Properties=species:S:1:pos:R:3:forces:R:3 energy=-1.6797940650948011 pbc="F F F"
Pb       0.00000000       0.00000000       0.00000000       0.00000000       0.00000000       0.23970243
Pb       0.00000000       0.00000000       5.17696970       0.00000000       0.00000000      -0.23970243
2
Properties=species:S:1:pos:R:3:forces:R:3 energy=-1.666094710195309 pbc="F F F"
Pb       0.00000000       0.00000000       0.00000000       0.00000000       0.00000000       0.22679408
Pb       0.00000000       0.00000000       5.23575758       0.00000000       0.00000000      -0.22679408
2
Properties=species:S:1:pos:R:3:forces:R:3 energy=-1.6531049881995583 pbc="F F F"
Pb       0.00000000       0.00000000       0.00000000       0.00000000       0.00000000       0.21509820
Pb       0.00000000       0.00000000       5.29454545       0.00000000       0.00000000      -0.21509820
2
Properties=species:S:1:pos:R:3:forces:R:3 energy=-1.6408366124006384 pbc="F F F"
Pb       0.00000000       0.00000000       0.00000000       0.00000000       0.00000000       0.20179164
Pb       0.00000000       0.00000000       5.35333333       0.00000000       0.00000000      -0.20179164
2
Properties=species:S:1:pos:R:3:forces:R:3 energy=-1.6294214983172477 pbc="F F F"
Pb       0.00000000       0.00000000       0.00000000       0.00000000       0.00000000       0.18649107
Pb       0.00000000       0.00000000       5.41212121       0.00000000       0.00000000      -0.18649107
2
Properties=species:S:1:pos:R:3:forces:R:3 energy=-1.6188496905741492 pbc="F F F"
Pb       0.00000000       0.00000000       0.00000000       0.00000000       0.00000000       0.17412734
Pb       0.00000000       0.00000000       5.47090909       0.00000000       0.00000000      -0.17412734
2
Properties=species:S:1:pos:R:3:forces:R:3 energy=-1.6088771285901489 pbc="F F F"
Pb       0.00000000       0.00000000       0.00000000       0.00000000       0.00000000       0.16481058
Pb       0.00000000       0.00000000       5.52969697       0.00000000       0.00000000      -0.16481058
2
Properties=species:S:1:pos:R:3:forces:R:3 energy=-1.599633639297382 pbc="F F F"
Pb       0.00000000       0.00000000       0.00000000       0.00000000       0.00000000       0.14781530
Pb       0.00000000       0.00000000       5.58848485       0.00000000       0.00000000      -0.14781530
2
Properties=species:S:1:pos:R:3:forces:R:3 energy=-1.591659217947025 pbc="F F F"
Pb       0.00000000       0.00000000       0.00000000       0.00000000       0.00000000       0.12305322
Pb       0.00000000       0.00000000       5.64727273       0.00000000       0.00000000      -0.12305322
2
Properties=species:S:1:pos:R:3:forces:R:3 energy=-1.5850712815296955 pbc="F F F"
Pb       0.00000000       0.00000000       0.00000000       0.00000000       0.00000000       0.10318457
Pb       0.00000000       0.00000000       5.70606061       0.00000000       0.00000000      -0.10318457
2
Properties=species:S:1:pos:R:3:forces:R:3 energy=-1.579240001275425 pbc="F F F"
Pb       0.00000000       0.00000000       0.00000000       0.00000000       0.00000000       0.09641948
Pb       0.00000000       0.00000000       5.76484848       0.00000000       0.00000000      -0.09641948
2
Properties=species:S:1:pos:R:3:forces:R:3 energy=-1.5738272543776954 pbc="F F F"
Pb       0.00000000       0.00000000       0.00000000       0.00000000       0.00000000       0.08500689
Pb       0.00000000       0.00000000       5.82363636       0.00000000       0.00000000      -0.08500689
2
Properties=species:S:1:pos:R:3:forces:R:3 energy=-1.5696477523033738 pbc="F F F"
Pb       0.00000000       0.00000000       0.00000000       0.00000000       0.00000000       0.05521795
Pb       0.00000000       0.00000000       5.88242424       0.00000000       0.00000000      -0.05521795
2
Properties=species:S:1:pos:R:3:forces:R:3 energy=-1.5673547995571053 pbc="F F F"
Pb       0.00000000       0.00000000       0.00000000       0.00000000       0.00000000       0.02430638
Pb       0.00000000       0.00000000       5.94121212       0.00000000       0.00000000      -0.02430638
2
Properties=species:S:1:pos:R:3:forces:R:3 energy=-1.5664181326281246 pbc="F F F"
Pb       0.00000000       0.00000000       0.00000000       0.00000000       0.00000000       0.01160836
Pb       0.00000000       0.00000000       6.00000000       0.00000000       0.00000000      -0.01160836
