2
Properties=species:S:1:pos:R:3:forces:R:3 energy=8011.268183594283 pbc="F F F"
Pd       0.00000000       0.00000000       0.00000000       0.00000000       0.00000000 -127269.54687500
Pd       0.00000000       0.00000000       0.18000000       0.00000000       0.00000000  127269.54687500
2
Properties=species:S:1:pos:R:3:forces:R:3 energy=3475.784541016158 pbc="F F F"
Pd       0.00000000       0.00000000       0.00000000       0.00000000       0.00000000  -44132.16796875
Pd       0.00000000       0.00000000       0.23878788       0.00000000       0.00000000   44132.16796875
2
Properties=species:S:1:pos:R:3:forces:R:3 energy=1778.567744141158 pbc="F F F"
Pd       0.00000000       0.00000000       0.00000000       0.00000000       0.00000000  -18056.01757812
Pd       0.00000000       0.00000000       0.29757576       0.00000000       0.00000000   18056.01757812
2
Properties=species:S:1:pos:R:3:forces:R:3 energy=1049.3417919990563 pbc="F F F"
Pd       0.00000000       0.00000000       0.00000000       0.00000000       0.00000000   -8213.96777344
Pd       0.00000000       0.00000000       0.35636364       0.00000000       0.00000000    8213.96777344
2
Properties=species:S:1:pos:R:3:forces:R:3 energy=705.2761181804348 pbc="F F F"
Pd       0.00000000       0.00000000       0.00000000       0.00000000       0.00000000   -4050.94653320
Pd       0.00000000       0.00000000       0.41515152       0.00000000       0.00000000    4050.94653320
2
Properties=species:S:1:pos:R:3:forces:R:3 energy=529.8745679064729 pbc="F F F"
Pd       0.00000000       0.00000000       0.00000000       0.00000000       0.00000000   -2154.29174805
Pd       0.00000000       0.00000000       0.47393939       0.00000000       0.00000000    2154.29174805
2
Properties=species:S:1:pos:R:3:forces:R:3 energy=432.0467481171002 pbc="F F F"
Pd       0.00000000       0.00000000       0.00000000       0.00000000       0.00000000   -1297.03515625
Pd       0.00000000       0.00000000       0.53272727       0.00000000       0.00000000    1297.03515625
2
Properties=species:S:1:pos:R:3:forces:R:3 energy=366.7213087241638 pbc="F F F"
Pd       0.00000000       0.00000000       0.00000000       0.00000000       0.00000000    -985.33129883
Pd       0.00000000       0.00000000       0.59151515       0.00000000       0.00000000     985.33129883
2
Properties=species:S:1:pos:R:3:forces:R:3 energy=309.7089797208038 pbc="F F F"
Pd       0.00000000       0.00000000       0.00000000       0.00000000       0.00000000    -984.41644287
Pd       0.00000000       0.00000000       0.65030303       0.00000000       0.00000000     984.41644287
2
Properties=species:S:1:pos:R:3:forces:R:3 energy=250.13412025371863 pbc="F F F"
Pd       0.00000000       0.00000000       0.00000000       0.00000000       0.00000000   -1041.35693359
Pd       0.00000000       0.00000000       0.70909091       0.00000000       0.00000000    1041.35693359
2
Properties=species:S:1:pos:R:3:forces:R:3 energy=188.4466204913053 pbc="F F F"
Pd       0.00000000       0.00000000       0.00000000       0.00000000       0.00000000   -1038.30883789
Pd       0.00000000       0.00000000       0.76787879       0.00000000       0.00000000    1038.30883789
2
Properties=species:S:1:pos:R:3:forces:R:3 energy=132.8132742789807 pbc="F F F"
Pd       0.00000000       0.00000000       0.00000000       0.00000000       0.00000000    -817.45867920
Pd       0.00000000       0.00000000       0.82666667       0.00000000       0.00000000     817.45867920
2
Properties=species:S:1:pos:R:3:forces:R:3 energy=93.16869012056708 pbc="F F F"
Pd       0.00000000       0.00000000       0.00000000       0.00000000       0.00000000    -543.56054688
Pd       0.00000000       0.00000000       0.88545455       0.00000000       0.00000000     543.56054688
2
Properties=species:S:1:pos:R:3:forces:R:3 energy=66.69259371372219 pbc="F F F"
Pd       0.00000000       0.00000000       0.00000000       0.00000000       0.00000000    -371.33334351
Pd       0.00000000       0.00000000       0.94424242       0.00000000       0.00000000     371.33334351
2
Properties=species:S:1:pos:R:3:forces:R:3 energy=48.44315924876761 pbc="F F F"
Pd       0.00000000       0.00000000       0.00000000       0.00000000       0.00000000    -256.04568481
Pd       0.00000000       0.00000000       1.00303030       0.00000000       0.00000000     256.04568481
2
Properties=species:S:1:pos:R:3:forces:R:3 energy=35.93431426144788 pbc="F F F"
Pd       0.00000000       0.00000000       0.00000000       0.00000000       0.00000000    -174.24426270
Pd       0.00000000       0.00000000       1.06181818       0.00000000       0.00000000     174.24426270
2
Properties=species:S:1:pos:R:3:forces:R:3 energy=27.509839358040153 pbc="F F F"
Pd       0.00000000       0.00000000       0.00000000       0.00000000       0.00000000    -115.42757416
Pd       0.00000000       0.00000000       1.12060606       0.00000000       0.00000000     115.42757416
2
Properties=species:S:1:pos:R:3:forces:R:3 energy=22.030910183359747 pbc="F F F"
Pd       0.00000000       0.00000000       0.00000000       0.00000000       0.00000000     -73.75000000
Pd       0.00000000       0.00000000       1.17939394       0.00000000       0.00000000      73.75000000
2
Properties=species:S:1:pos:R:3:forces:R:3 energy=18.50400803794167 pbc="F F F"
Pd       0.00000000       0.00000000       0.00000000       0.00000000       0.00000000     -49.11262894
Pd       0.00000000       0.00000000       1.23818182       0.00000000       0.00000000      49.11262894
2
Properties=species:S:1:pos:R:3:forces:R:3 energy=15.949887884821512 pbc="F F F"
Pd       0.00000000       0.00000000       0.00000000       0.00000000       0.00000000     -39.85115814
Pd       0.00000000       0.00000000       1.29696970       0.00000000       0.00000000      39.85115814
2
Properties=species:S:1:pos:R:3:forces:R:3 energy=13.659861165435398 pbc="F F F"
Pd       0.00000000       0.00000000       0.00000000       0.00000000       0.00000000     -38.72074509
Pd       0.00000000       0.00000000       1.35575758       0.00000000       0.00000000      38.72074509
2
Properties=species:S:1:pos:R:3:forces:R:3 energy=11.379960791032055 pbc="F F F"
Pd       0.00000000       0.00000000       0.00000000       0.00000000       0.00000000     -38.62596893
Pd       0.00000000       0.00000000       1.41454545       0.00000000       0.00000000      38.62596893
2
Properties=species:S:1:pos:R:3:forces:R:3 energy=9.15886921202773 pbc="F F F"
Pd       0.00000000       0.00000000       0.00000000       0.00000000       0.00000000     -36.59779358
Pd       0.00000000       0.00000000       1.47333333       0.00000000       0.00000000      36.59779358
2
Properties=species:S:1:pos:R:3:forces:R:3 energy=7.101713053265141 pbc="F F F"
Pd       0.00000000       0.00000000       0.00000000       0.00000000       0.00000000     -33.33015442
Pd       0.00000000       0.00000000       1.53212121       0.00000000       0.00000000      33.33015442
2
Properties=species:S:1:pos:R:3:forces:R:3 energy=5.2339289156842685 pbc="F F F"
Pd       0.00000000       0.00000000       0.00000000       0.00000000       0.00000000     -30.31556892
Pd       0.00000000       0.00000000       1.59090909       0.00000000       0.00000000      30.31556892
2
Properties=species:S:1:pos:R:3:forces:R:3 energy=3.5284526944395496 pbc="F F F"
Pd       0.00000000       0.00000000       0.00000000       0.00000000       0.00000000     -27.72813034
Pd       0.00000000       0.00000000       1.64969697       0.00000000       0.00000000      27.72813034
2
Properties=species:S:1:pos:R:3:forces:R:3 energy=1.9774403802646767 pbc="F F F"
Pd       0.00000000       0.00000000       0.00000000       0.00000000       0.00000000     -24.96957207
Pd       0.00000000       0.00000000       1.70848485       0.00000000       0.00000000      24.96957207
2
Properties=species:S:1:pos:R:3:forces:R:3 energy=0.6017891026884035 pbc="F F F"
Pd       0.00000000       0.00000000       0.00000000       0.00000000       0.00000000     -21.76039696
Pd       0.00000000       0.00000000       1.76727273       0.00000000       0.00000000      21.76039696
2
Properties=species:S:1:pos:R:3:forces:R:3 energy=-0.5755336806941531 pbc="F F F"
Pd       0.00000000       0.00000000       0.00000000       0.00000000       0.00000000     -18.27489471
Pd       0.00000000       0.00000000       1.82606061       0.00000000       0.00000000      18.27489471
2
Properties=species:S:1:pos:R:3:forces:R:3 energy=-1.548375350222567 pbc="F F F"
Pd       0.00000000       0.00000000       0.00000000       0.00000000       0.00000000     -14.86180973
Pd       0.00000000       0.00000000       1.88484848       0.00000000       0.00000000      14.86180973
2
Properties=species:S:1:pos:R:3:forces:R:3 energy=-2.329945325089965 pbc="F F F"
Pd       0.00000000       0.00000000       0.00000000       0.00000000       0.00000000     -11.80124092
Pd       0.00000000       0.00000000       1.94363636       0.00000000       0.00000000      11.80124092
2
Properties=species:S:1:pos:R:3:forces:R:3 energy=-2.945197347834633 pbc="F F F"
Pd       0.00000000       0.00000000       0.00000000       0.00000000       0.00000000      -9.20995140
Pd       0.00000000       0.00000000       2.00242424       0.00000000       0.00000000       9.20995140
2
Properties=species:S:1:pos:R:3:forces:R:3 energy=-3.4218028439180666 pbc="F F F"
Pd       0.00000000       0.00000000       0.00000000       0.00000000       0.00000000      -7.07585335
Pd       0.00000000       0.00000000       2.06121212       0.00000000       0.00000000       7.07585335
2
Properties=species:S:1:pos:R:3:forces:R:3 energy=-3.784829172318002 pbc="F F F"
Pd       0.00000000       0.00000000       0.00000000       0.00000000       0.00000000      -5.33399057
Pd       0.00000000       0.00000000       2.12000000       0.00000000       0.00000000       5.33399057
2
Properties=species:S:1:pos:R:3:forces:R:3 energy=-4.055281165948145 pbc="F F F"
Pd       0.00000000       0.00000000       0.00000000       0.00000000       0.00000000      -3.91561031
Pd       0.00000000       0.00000000       2.17878788       0.00000000       0.00000000       3.91561031
2
Properties=species:S:1:pos:R:3:forces:R:3 energy=-4.250429357599652 pbc="F F F"
Pd       0.00000000       0.00000000       0.00000000       0.00000000       0.00000000      -2.76382637
Pd       0.00000000       0.00000000       2.23757576       0.00000000       0.00000000       2.76382637
2
Properties=species:S:1:pos:R:3:forces:R:3 energy=-4.384573164119299 pbc="F F F"
Pd       0.00000000       0.00000000       0.00000000       0.00000000       0.00000000      -1.83353353
Pd       0.00000000       0.00000000       2.29636364       0.00000000       0.00000000       1.83353353
2
Properties=species:S:1:pos:R:3:forces:R:3 energy=-4.469630878738397 pbc="F F F"
Pd       0.00000000       0.00000000       0.00000000       0.00000000       0.00000000      -1.08837974
Pd       0.00000000       0.00000000       2.35515152       0.00000000       0.00000000       1.08837974
2
Properties=species:S:1:pos:R:3:forces:R:3 energy=-4.515585359845541 pbc="F F F"
Pd       0.00000000       0.00000000       0.00000000       0.00000000       0.00000000      -0.49873146
Pd       0.00000000       0.00000000       2.41393939       0.00000000       0.00000000       0.49873146
2
Properties=species:S:1:pos:R:3:forces:R:3 energy=-4.530826589910337 pbc="F F F"
Pd       0.00000000       0.00000000       0.00000000       0.00000000       0.00000000      -0.03949640
Pd       0.00000000       0.00000000       2.47272727       0.00000000       0.00000000       0.03949640
2
Properties=species:S:1:pos:R:3:forces:R:3 energy=-4.522259426216596 pbc="F F F"
Pd       0.00000000       0.00000000       0.00000000       0.00000000       0.00000000       0.31649867
Pd       0.00000000       0.00000000       2.53151515       0.00000000       0.00000000      -0.31649867
2
Properties=species:S:1:pos:R:3:forces:R:3 energy=-4.49491370376645 pbc="F F F"
Pd       0.00000000       0.00000000       0.00000000       0.00000000       0.00000000       0.60610116
Pd       0.00000000       0.00000000       2.59030303       0.00000000       0.00000000      -0.60610116
2
Properties=species:S:1:pos:R:3:forces:R:3 energy=-4.4516955113862355 pbc="F F F"
Pd       0.00000000       0.00000000       0.00000000       0.00000000       0.00000000       0.85832793
Pd       0.00000000       0.00000000       2.64909091       0.00000000       0.00000000      -0.85832793
2
Properties=species:S:1:pos:R:3:forces:R:3 energy=-4.394924426802201 pbc="F F F"
Pd       0.00000000       0.00000000       0.00000000       0.00000000       0.00000000       1.06282783
Pd       0.00000000       0.00000000       2.70787879       0.00000000       0.00000000      -1.06282783
2
Properties=species:S:1:pos:R:3:forces:R:3 energy=-4.328072792288133 pbc="F F F"
Pd       0.00000000       0.00000000       0.00000000       0.00000000       0.00000000       1.20008063
Pd       0.00000000       0.00000000       2.76666667       0.00000000       0.00000000      -1.20008063
2
Properties=species:S:1:pos:R:3:forces:R:3 energy=-4.2550355088682785 pbc="F F F"
Pd       0.00000000       0.00000000       0.00000000       0.00000000       0.00000000       1.27579153
Pd       0.00000000       0.00000000       2.82545455       0.00000000       0.00000000      -1.27579153
2
Properties=species:S:1:pos:R:3:forces:R:3 energy=-4.1789557995197315 pbc="F F F"
Pd       0.00000000       0.00000000       0.00000000       0.00000000       0.00000000       1.30615747
Pd       0.00000000       0.00000000       2.88424242       0.00000000       0.00000000      -1.30615747
2
Properties=species:S:1:pos:R:3:forces:R:3 energy=-4.102089068782456 pbc="F F F"
Pd       0.00000000       0.00000000       0.00000000       0.00000000       0.00000000       1.30440140
Pd       0.00000000       0.00000000       2.94303030       0.00000000       0.00000000      -1.30440140
2
Properties=species:S:1:pos:R:3:forces:R:3 energy=-4.026031693431894 pbc="F F F"
Pd       0.00000000       0.00000000       0.00000000       0.00000000       0.00000000       1.28003728
Pd       0.00000000       0.00000000       3.00181818       0.00000000       0.00000000      -1.28003728
2
Properties=species:S:1:pos:R:3:forces:R:3 energy=-3.951888356279454 pbc="F F F"
Pd       0.00000000       0.00000000       0.00000000       0.00000000       0.00000000       1.24032402
Pd       0.00000000       0.00000000       3.06060606       0.00000000       0.00000000      -1.24032402
2
Properties=species:S:1:pos:R:3:forces:R:3 energy=-3.880390581907219 pbc="F F F"
Pd       0.00000000       0.00000000       0.00000000       0.00000000       0.00000000       1.19082952
Pd       0.00000000       0.00000000       3.11939394       0.00000000       0.00000000      -1.19082952
2
Properties=species:S:1:pos:R:3:forces:R:3 energy=-3.811986659256207 pbc="F F F"
Pd       0.00000000       0.00000000       0.00000000       0.00000000       0.00000000       1.13560021
Pd       0.00000000       0.00000000       3.17818182       0.00000000       0.00000000      -1.13560021
2
Properties=species:S:1:pos:R:3:forces:R:3 energy=-3.746929995245413 pbc="F F F"
Pd       0.00000000       0.00000000       0.00000000       0.00000000       0.00000000       1.07733834
Pd       0.00000000       0.00000000       3.23696970       0.00000000       0.00000000      -1.07733834
2
Properties=species:S:1:pos:R:3:forces:R:3 energy=-3.685344784259343 pbc="F F F"
Pd       0.00000000       0.00000000       0.00000000       0.00000000       0.00000000       1.01772153
Pd       0.00000000       0.00000000       3.29575758       0.00000000       0.00000000      -1.01772153
2
Properties=species:S:1:pos:R:3:forces:R:3 energy=-3.627277266478686 pbc="F F F"
Pd       0.00000000       0.00000000       0.00000000       0.00000000       0.00000000       0.95775110
Pd       0.00000000       0.00000000       3.35454545       0.00000000       0.00000000      -0.95775110
2
Properties=species:S:1:pos:R:3:forces:R:3 energy=-3.5727301488547236 pbc="F F F"
Pd       0.00000000       0.00000000       0.00000000       0.00000000       0.00000000       0.89807439
Pd       0.00000000       0.00000000       3.41333333       0.00000000       0.00000000      -0.89807439
2
Properties=species:S:1:pos:R:3:forces:R:3 energy=-3.521669966742966 pbc="F F F"
Pd       0.00000000       0.00000000       0.00000000       0.00000000       0.00000000       0.83918452
Pd       0.00000000       0.00000000       3.47212121       0.00000000       0.00000000      -0.83918452
2
Properties=species:S:1:pos:R:3:forces:R:3 energy=-3.4740378254104978 pbc="F F F"
Pd       0.00000000       0.00000000       0.00000000       0.00000000       0.00000000       0.78156650
Pd       0.00000000       0.00000000       3.53090909       0.00000000       0.00000000      -0.78156650
2
Properties=species:S:1:pos:R:3:forces:R:3 energy=-3.429741986053356 pbc="F F F"
Pd       0.00000000       0.00000000       0.00000000       0.00000000       0.00000000       0.72572714
Pd       0.00000000       0.00000000       3.58969697       0.00000000       0.00000000      -0.72572714
2
Properties=species:S:1:pos:R:3:forces:R:3 energy=-3.3886639886518517 pbc="F F F"
Pd       0.00000000       0.00000000       0.00000000       0.00000000       0.00000000       0.67219979
Pd       0.00000000       0.00000000       3.64848485       0.00000000       0.00000000      -0.67219979
2
Properties=species:S:1:pos:R:3:forces:R:3 energy=-3.3506526875063565 pbc="F F F"
Pd       0.00000000       0.00000000       0.00000000       0.00000000       0.00000000       0.62149072
Pd       0.00000000       0.00000000       3.70727273       0.00000000       0.00000000      -0.62149072
2
Properties=species:S:1:pos:R:3:forces:R:3 energy=-3.315528072270208 pbc="F F F"
Pd       0.00000000       0.00000000       0.00000000       0.00000000       0.00000000       0.57401496
Pd       0.00000000       0.00000000       3.76606061       0.00000000       0.00000000      -0.57401496
2
Properties=species:S:1:pos:R:3:forces:R:3 energy=-3.2830933892833816 pbc="F F F"
Pd       0.00000000       0.00000000       0.00000000       0.00000000       0.00000000       0.53004402
Pd       0.00000000       0.00000000       3.82484848       0.00000000       0.00000000      -0.53004402
2
Properties=species:S:1:pos:R:3:forces:R:3 energy=-3.253137414052586 pbc="F F F"
Pd       0.00000000       0.00000000       0.00000000       0.00000000       0.00000000       0.48965231
Pd       0.00000000       0.00000000       3.88363636       0.00000000       0.00000000      -0.48965231
2
Properties=species:S:1:pos:R:3:forces:R:3 energy=-3.2254539572252416 pbc="F F F"
Pd       0.00000000       0.00000000       0.00000000       0.00000000       0.00000000       0.45272148
Pd       0.00000000       0.00000000       3.94242424       0.00000000       0.00000000      -0.45272148
2
Properties=species:S:1:pos:R:3:forces:R:3 energy=-3.1998467636736865 pbc="F F F"
Pd       0.00000000       0.00000000       0.00000000       0.00000000       0.00000000       0.41895604
Pd       0.00000000       0.00000000       4.00121212       0.00000000       0.00000000      -0.41895604
2
Properties=species:S:1:pos:R:3:forces:R:3 energy=-3.176141290040219 pbc="F F F"
Pd       0.00000000       0.00000000       0.00000000       0.00000000       0.00000000       0.38793349
Pd       0.00000000       0.00000000       4.06000000       0.00000000       0.00000000      -0.38793349
2
Properties=species:S:1:pos:R:3:forces:R:3 energy=-3.154190806249583 pbc="F F F"
Pd       0.00000000       0.00000000       0.00000000       0.00000000       0.00000000       0.35917315
Pd       0.00000000       0.00000000       4.11878788       0.00000000       0.00000000      -0.35917315
2
Properties=species:S:1:pos:R:3:forces:R:3 energy=-3.1338762521250563 pbc="F F F"
Pd       0.00000000       0.00000000       0.00000000       0.00000000       0.00000000       0.33219656
Pd       0.00000000       0.00000000       4.17757576       0.00000000       0.00000000      -0.33219656
2
Properties=species:S:1:pos:R:3:forces:R:3 energy=-3.1151054564403644 pbc="F F F"
Pd       0.00000000       0.00000000       0.00000000       0.00000000       0.00000000       0.30659109
Pd       0.00000000       0.00000000       4.23636364       0.00000000       0.00000000      -0.30659109
2
Properties=species:S:1:pos:R:3:forces:R:3 energy=-3.0978075392507645 pbc="F F F"
Pd       0.00000000       0.00000000       0.00000000       0.00000000       0.00000000       0.28204563
Pd       0.00000000       0.00000000       4.29515152       0.00000000       0.00000000      -0.28204563
2
Properties=species:S:1:pos:R:3:forces:R:3 energy=-3.0819268627295466 pbc="F F F"
Pd       0.00000000       0.00000000       0.00000000       0.00000000       0.00000000       0.25837627
Pd       0.00000000       0.00000000       4.35393939       0.00000000       0.00000000      -0.25837627
2
Properties=species:S:1:pos:R:3:forces:R:3 energy=-3.0674136101303047 pbc="F F F"
Pd       0.00000000       0.00000000       0.00000000       0.00000000       0.00000000       0.23550591
Pd       0.00000000       0.00000000       4.41272727       0.00000000       0.00000000      -0.23550591
2
Properties=species:S:1:pos:R:3:forces:R:3 energy=-3.054220864575365 pbc="F F F"
Pd       0.00000000       0.00000000       0.00000000       0.00000000       0.00000000       0.21345349
Pd       0.00000000       0.00000000       4.47151515       0.00000000       0.00000000      -0.21345349
2
Properties=species:S:1:pos:R:3:forces:R:3 energy=-3.042298747625715 pbc="F F F"
Pd       0.00000000       0.00000000       0.00000000       0.00000000       0.00000000       0.19229688
Pd       0.00000000       0.00000000       4.53030303       0.00000000       0.00000000      -0.19229688
2
Properties=species:S:1:pos:R:3:forces:R:3 energy=-3.0315920454305942 pbc="F F F"
Pd       0.00000000       0.00000000       0.00000000       0.00000000       0.00000000       0.17213306
Pd       0.00000000       0.00000000       4.58909091       0.00000000       0.00000000      -0.17213306
2
Properties=species:S:1:pos:R:3:forces:R:3 energy=-3.0220391821932706 pbc="F F F"
Pd       0.00000000       0.00000000       0.00000000       0.00000000       0.00000000       0.15305105
Pd       0.00000000       0.00000000       4.64787879       0.00000000       0.00000000      -0.15305105
2
Properties=species:S:1:pos:R:3:forces:R:3 energy=-3.0135745441682102 pbc="F F F"
Pd       0.00000000       0.00000000       0.00000000       0.00000000       0.00000000       0.13510831
Pd       0.00000000       0.00000000       4.70666667       0.00000000       0.00000000      -0.13510831
2
Properties=species:S:1:pos:R:3:forces:R:3 energy=-3.006130733966159 pbc="F F F"
Pd       0.00000000       0.00000000       0.00000000       0.00000000       0.00000000       0.11833216
Pd       0.00000000       0.00000000       4.76545455       0.00000000       0.00000000      -0.11833216
2
Properties=species:S:1:pos:R:3:forces:R:3 energy=-2.999638583225434 pbc="F F F"
Pd       0.00000000       0.00000000       0.00000000       0.00000000       0.00000000       0.10271526
Pd       0.00000000       0.00000000       4.82424242       0.00000000       0.00000000      -0.10271526
2
Properties=species:S:1:pos:R:3:forces:R:3 energy=-2.994031669893634 pbc="F F F"
Pd       0.00000000       0.00000000       0.00000000       0.00000000       0.00000000       0.08824562
Pd       0.00000000       0.00000000       4.88303030       0.00000000       0.00000000      -0.08824562
2
Properties=species:S:1:pos:R:3:forces:R:3 energy=-2.9892405518322347 pbc="F F F"
Pd       0.00000000       0.00000000       0.00000000       0.00000000       0.00000000       0.07493492
Pd       0.00000000       0.00000000       4.94181818       0.00000000       0.00000000      -0.07493492
2
Properties=species:S:1:pos:R:3:forces:R:3 energy=-2.985196422290826 pbc="F F F"
Pd       0.00000000       0.00000000       0.00000000       0.00000000       0.00000000       0.06287187
Pd       0.00000000       0.00000000       5.00060606       0.00000000       0.00000000      -0.06287187
2
Properties=species:S:1:pos:R:3:forces:R:3 energy=-2.981819986597272 pbc="F F F"
Pd       0.00000000       0.00000000       0.00000000       0.00000000       0.00000000       0.05225100
Pd       0.00000000       0.00000000       5.05939394       0.00000000       0.00000000      -0.05225100
2
Properties=species:S:1:pos:R:3:forces:R:3 energy=-2.9790190557971648 pbc="F F F"
Pd       0.00000000       0.00000000       0.00000000       0.00000000       0.00000000       0.04334951
Pd       0.00000000       0.00000000       5.11818182       0.00000000       0.00000000      -0.04334951
2
Properties=species:S:1:pos:R:3:forces:R:3 energy=-2.9766848539177095 pbc="F F F"
Pd       0.00000000       0.00000000       0.00000000       0.00000000       0.00000000       0.03640854
Pd       0.00000000       0.00000000       5.17696970       0.00000000       0.00000000      -0.03640854
2
Properties=species:S:1:pos:R:3:forces:R:3 energy=-2.974699690127858 pbc="F F F"
Pd       0.00000000       0.00000000       0.00000000       0.00000000       0.00000000       0.03143547
Pd       0.00000000       0.00000000       5.23575758       0.00000000       0.00000000      -0.03143547
2
Properties=species:S:1:pos:R:3:forces:R:3 energy=-2.972957090437081 pbc="F F F"
Pd       0.00000000       0.00000000       0.00000000       0.00000000       0.00000000       0.02807621
Pd       0.00000000       0.00000000       5.29454545       0.00000000       0.00000000      -0.02807621
2
Properties=species:S:1:pos:R:3:forces:R:3 energy=-2.971379497691022 pbc="F F F"
Pd       0.00000000       0.00000000       0.00000000       0.00000000       0.00000000       0.02569042
Pd       0.00000000       0.00000000       5.35333333       0.00000000       0.00000000      -0.02569042
2
Properties=species:S:1:pos:R:3:forces:R:3 energy=-2.9699342836301623 pbc="F F F"
Pd       0.00000000       0.00000000       0.00000000       0.00000000       0.00000000       0.02339072
Pd       0.00000000       0.00000000       5.41212121       0.00000000       0.00000000      -0.02339072
2
Properties=species:S:1:pos:R:3:forces:R:3 energy=-2.968651273823338 pbc="F F F"
Pd       0.00000000       0.00000000       0.00000000       0.00000000       0.00000000       0.01999904
Pd       0.00000000       0.00000000       5.47090909       0.00000000       0.00000000      -0.01999904
2
Properties=species:S:1:pos:R:3:forces:R:3 energy=-2.967606544707826 pbc="F F F"
Pd       0.00000000       0.00000000       0.00000000       0.00000000       0.00000000       0.01551536
Pd       0.00000000       0.00000000       5.52969697       0.00000000       0.00000000      -0.01551536
2
Properties=species:S:1:pos:R:3:forces:R:3 energy=-2.96680614501483 pbc="F F F"
Pd       0.00000000       0.00000000       0.00000000       0.00000000       0.00000000       0.01199518
Pd       0.00000000       0.00000000       5.58848485       0.00000000       0.00000000      -0.01199518
2
Properties=species:S:1:pos:R:3:forces:R:3 energy=-2.966174738792795 pbc="F F F"
Pd       0.00000000       0.00000000       0.00000000       0.00000000       0.00000000       0.00945831
Pd       0.00000000       0.00000000       5.64727273       0.00000000       0.00000000      -0.00945831
2
Properties=species:S:1:pos:R:3:forces:R:3 energy=-2.9657260382615065 pbc="F F F"
Pd       0.00000000       0.00000000       0.00000000       0.00000000       0.00000000       0.00534462
Pd       0.00000000       0.00000000       5.70606061       0.00000000       0.00000000      -0.00534462
2
Properties=species:S:1:pos:R:3:forces:R:3 energy=-2.9655981721251754 pbc="F F F"
Pd       0.00000000       0.00000000       0.00000000       0.00000000       0.00000000      -0.00108826
Pd       0.00000000       0.00000000       5.76484848       0.00000000       0.00000000       0.00108826
2
Properties=species:S:1:pos:R:3:forces:R:3 energy=-2.9657941095123297 pbc="F F F"
Pd       0.00000000       0.00000000       0.00000000       0.00000000       0.00000000      -0.00446673
Pd       0.00000000       0.00000000       5.82363636       0.00000000       0.00000000       0.00446673
2
Properties=species:S:1:pos:R:3:forces:R:3 energy=-2.965956063730916 pbc="F F F"
Pd       0.00000000       0.00000000       0.00000000       0.00000000       0.00000000       0.00005755
Pd       0.00000000       0.00000000       5.88242424       0.00000000       0.00000000      -0.00005755
2
Properties=species:S:1:pos:R:3:forces:R:3 energy=-2.9657296295065425 pbc="F F F"
Pd       0.00000000       0.00000000       0.00000000       0.00000000       0.00000000       0.00746946
Pd       0.00000000       0.00000000       5.94121212       0.00000000       0.00000000      -0.00746946
2
Properties=species:S:1:pos:R:3:forces:R:3 energy=-2.965171969053147 pbc="F F F"
Pd       0.00000000       0.00000000       0.00000000       0.00000000       0.00000000       0.01034850
Pd       0.00000000       0.00000000       6.00000000       0.00000000       0.00000000      -0.01034850
