2
Properties=species:S:1:pos:R:3:forces:R:3 energy=2416.243784816512 pbc="F F F"
Rb       0.00000000       0.00000000       0.00000000       0.00000000       0.00000000  -90970.08593750
Rb       0.00000000       0.00000000       0.18000000       0.00000000       0.00000000   90970.08593750
2
Properties=species:S:1:pos:R:3:forces:R:3 energy=-839.3265887186444 pbc="F F F"
Rb       0.00000000       0.00000000       0.00000000       0.00000000       0.00000000  -31694.41992188
Rb       0.00000000       0.00000000       0.23878788       0.00000000       0.00000000   31694.41992188
2
Properties=species:S:1:pos:R:3:forces:R:3 energy=-2039.2538958475507 pbc="F F F"
Rb       0.00000000       0.00000000       0.00000000       0.00000000       0.00000000  -12228.69628906
Rb       0.00000000       0.00000000       0.29757576       0.00000000       0.00000000   12228.69628906
2
Properties=species:S:1:pos:R:3:forces:R:3 energy=-2486.109730808488 pbc="F F F"
Rb       0.00000000       0.00000000       0.00000000       0.00000000       0.00000000   -3953.27319336
Rb       0.00000000       0.00000000       0.35636364       0.00000000       0.00000000    3953.27319336
2
Properties=species:S:1:pos:R:3:forces:R:3 energy=-2573.475453464738 pbc="F F F"
Rb       0.00000000       0.00000000       0.00000000       0.00000000       0.00000000     641.59051514
Rb       0.00000000       0.00000000       0.41515152       0.00000000       0.00000000    -641.59051514
2
Properties=species:S:1:pos:R:3:forces:R:3 energy=-2435.7530413537793 pbc="F F F"
Rb       0.00000000       0.00000000       0.00000000       0.00000000       0.00000000    3906.68676758
Rb       0.00000000       0.00000000       0.47393939       0.00000000       0.00000000   -3906.68676758
2
Properties=species:S:1:pos:R:3:forces:R:3 energy=-2126.7134905725293 pbc="F F F"
Rb       0.00000000       0.00000000       0.00000000       0.00000000       0.00000000    6506.03222656
Rb       0.00000000       0.00000000       0.53272727       0.00000000       0.00000000   -6506.03222656
2
Properties=species:S:1:pos:R:3:forces:R:3 energy=-1684.9747210381113 pbc="F F F"
Rb       0.00000000       0.00000000       0.00000000       0.00000000       0.00000000    8372.94921875
Rb       0.00000000       0.00000000       0.59151515       0.00000000       0.00000000   -8372.94921875
2
Properties=species:S:1:pos:R:3:forces:R:3 energy=-1164.3062640036935 pbc="F F F"
Rb       0.00000000       0.00000000       0.00000000       0.00000000       0.00000000    9116.76855469
Rb       0.00000000       0.00000000       0.65030303       0.00000000       0.00000000   -9116.76855469
2
Properties=species:S:1:pos:R:3:forces:R:3 energy=-642.3580828450141 pbc="F F F"
Rb       0.00000000       0.00000000       0.00000000       0.00000000       0.00000000    8379.32324219
Rb       0.00000000       0.00000000       0.70909091       0.00000000       0.00000000   -8379.32324219
2
Properties=species:S:1:pos:R:3:forces:R:3 energy=-207.53030878765912 pbc="F F F"
Rb       0.00000000       0.00000000       0.00000000       0.00000000       0.00000000    6211.83300781
Rb       0.00000000       0.00000000       0.76787879       0.00000000       0.00000000   -6211.83300781
2
Properties=species:S:1:pos:R:3:forces:R:3 energy=77.86468024026794 pbc="F F F"
Rb       0.00000000       0.00000000       0.00000000       0.00000000       0.00000000    3356.20385742
Rb       0.00000000       0.00000000       0.82666667       0.00000000       0.00000000   -3356.20385742
2
Properties=species:S:1:pos:R:3:forces:R:3 energy=193.38688179736081 pbc="F F F"
Rb       0.00000000       0.00000000       0.00000000       0.00000000       0.00000000     638.88659668
Rb       0.00000000       0.00000000       0.88545455       0.00000000       0.00000000    -638.88659668
2
Properties=species:S:1:pos:R:3:forces:R:3 energy=221.32409190729513 pbc="F F F"
Rb       0.00000000       0.00000000       0.00000000       0.00000000       0.00000000    -189.57604980
Rb       0.00000000       0.00000000       0.94424242       0.00000000       0.00000000     189.57604980
2
Properties=species:S:1:pos:R:3:forces:R:3 energy=133.89675429882462 pbc="F F F"
Rb       0.00000000       0.00000000       0.00000000       0.00000000       0.00000000   -1780.51440430
Rb       0.00000000       0.00000000       1.00303030       0.00000000       0.00000000    1780.51440430
2
Properties=species:S:1:pos:R:3:forces:R:3 energy=91.21316059792585 pbc="F F F"
Rb       0.00000000       0.00000000       0.00000000       0.00000000       0.00000000    -495.77917480
Rb       0.00000000       0.00000000       1.06181818       0.00000000       0.00000000     495.77917480
2
Properties=species:S:1:pos:R:3:forces:R:3 energy=72.13357845167856 pbc="F F F"
Rb       0.00000000       0.00000000       0.00000000       0.00000000       0.00000000    -159.68960571
Rb       0.00000000       0.00000000       1.12060606       0.00000000       0.00000000     159.68960571
2
Properties=species:S:1:pos:R:3:forces:R:3 energy=70.77466130088163 pbc="F F F"
Rb       0.00000000       0.00000000       0.00000000       0.00000000       0.00000000      85.52783203
Rb       0.00000000       0.00000000       1.17939394       0.00000000       0.00000000     -85.52783203
2
Properties=species:S:1:pos:R:3:forces:R:3 energy=77.35674607068495 pbc="F F F"
Rb       0.00000000       0.00000000       0.00000000       0.00000000       0.00000000      91.24912262
Rb       0.00000000       0.00000000       1.23818182       0.00000000       0.00000000     -91.24912262
2
Properties=species:S:1:pos:R:3:forces:R:3 energy=73.11055328269195 pbc="F F F"
Rb       0.00000000       0.00000000       0.00000000       0.00000000       0.00000000    -192.53417969
Rb       0.00000000       0.00000000       1.29696970       0.00000000       0.00000000     192.53417969
2
Properties=species:S:1:pos:R:3:forces:R:3 energy=61.70460101122844 pbc="F F F"
Rb       0.00000000       0.00000000       0.00000000       0.00000000       0.00000000    -187.05111694
Rb       0.00000000       0.00000000       1.35575758       0.00000000       0.00000000     187.05111694
2
Properties=species:S:1:pos:R:3:forces:R:3 energy=51.51852030669445 pbc="F F F"
Rb       0.00000000       0.00000000       0.00000000       0.00000000       0.00000000    -158.96812439
Rb       0.00000000       0.00000000       1.41454545       0.00000000       0.00000000     158.96812439
2
Properties=species:S:1:pos:R:3:forces:R:3 energy=42.89150643005828 pbc="F F F"
Rb       0.00000000       0.00000000       0.00000000       0.00000000       0.00000000    -135.65953064
Rb       0.00000000       0.00000000       1.47333333       0.00000000       0.00000000     135.65953064
2
Properties=species:S:1:pos:R:3:forces:R:3 energy=35.49552594355778 pbc="F F F"
Rb       0.00000000       0.00000000       0.00000000       0.00000000       0.00000000    -116.21166992
Rb       0.00000000       0.00000000       1.53212121       0.00000000       0.00000000     116.21166992
2
Properties=species:S:1:pos:R:3:forces:R:3 energy=29.208518085691306 pbc="F F F"
Rb       0.00000000       0.00000000       0.00000000       0.00000000       0.00000000     -97.86862946
Rb       0.00000000       0.00000000       1.59090909       0.00000000       0.00000000      97.86862946
2
Properties=species:S:1:pos:R:3:forces:R:3 energy=23.954547503776713 pbc="F F F"
Rb       0.00000000       0.00000000       0.00000000       0.00000000       0.00000000     -81.24981689
Rb       0.00000000       0.00000000       1.64969697       0.00000000       0.00000000      81.24981689
2
Properties=species:S:1:pos:R:3:forces:R:3 energy=19.6076891511501 pbc="F F F"
Rb       0.00000000       0.00000000       0.00000000       0.00000000       0.00000000     -67.03697968
Rb       0.00000000       0.00000000       1.70848485       0.00000000       0.00000000      67.03697968
2
Properties=species:S:1:pos:R:3:forces:R:3 energy=16.028006598090943 pbc="F F F"
Rb       0.00000000       0.00000000       0.00000000       0.00000000       0.00000000     -55.10591125
Rb       0.00000000       0.00000000       1.76727273       0.00000000       0.00000000      55.10591125
2
Properties=species:S:1:pos:R:3:forces:R:3 energy=13.087035163230754 pbc="F F F"
Rb       0.00000000       0.00000000       0.00000000       0.00000000       0.00000000     -45.29821396
Rb       0.00000000       0.00000000       1.82606061       0.00000000       0.00000000      45.29821396
2
Properties=species:S:1:pos:R:3:forces:R:3 energy=10.661538217307056 pbc="F F F"
Rb       0.00000000       0.00000000       0.00000000       0.00000000       0.00000000     -37.54643631
Rb       0.00000000       0.00000000       1.88484848       0.00000000       0.00000000      37.54643631
2
Properties=species:S:1:pos:R:3:forces:R:3 energy=8.638556871245731 pbc="F F F"
Rb       0.00000000       0.00000000       0.00000000       0.00000000       0.00000000     -31.51340103
Rb       0.00000000       0.00000000       1.94363636       0.00000000       0.00000000      31.51340103
2
Properties=species:S:1:pos:R:3:forces:R:3 energy=6.935397106242918 pbc="F F F"
Rb       0.00000000       0.00000000       0.00000000       0.00000000       0.00000000     -26.55535698
Rb       0.00000000       0.00000000       2.00242424       0.00000000       0.00000000      26.55535698
2
Properties=species:S:1:pos:R:3:forces:R:3 energy=5.504879250281013 pbc="F F F"
Rb       0.00000000       0.00000000       0.00000000       0.00000000       0.00000000     -22.19627571
Rb       0.00000000       0.00000000       2.06121212       0.00000000       0.00000000      22.19627571
2
Properties=species:S:1:pos:R:3:forces:R:3 energy=4.315337536204106 pbc="F F F"
Rb       0.00000000       0.00000000       0.00000000       0.00000000       0.00000000     -18.36707306
Rb       0.00000000       0.00000000       2.12000000       0.00000000       0.00000000      18.36707306
2
Properties=species:S:1:pos:R:3:forces:R:3 energy=3.3338196949551917 pbc="F F F"
Rb       0.00000000       0.00000000       0.00000000       0.00000000       0.00000000     -15.12217903
Rb       0.00000000       0.00000000       2.17878788       0.00000000       0.00000000      15.12217903
2
Properties=species:S:1:pos:R:3:forces:R:3 energy=2.52654328715265 pbc="F F F"
Rb       0.00000000       0.00000000       0.00000000       0.00000000       0.00000000     -12.42594719
Rb       0.00000000       0.00000000       2.23757576       0.00000000       0.00000000      12.42594719
2
Properties=species:S:1:pos:R:3:forces:R:3 energy=1.863911197113435 pbc="F F F"
Rb       0.00000000       0.00000000       0.00000000       0.00000000       0.00000000     -10.18592930
Rb       0.00000000       0.00000000       2.29636364       0.00000000       0.00000000      10.18592930
2
Properties=species:S:1:pos:R:3:forces:R:3 energy=1.3214173818672572 pbc="F F F"
Rb       0.00000000       0.00000000       0.00000000       0.00000000       0.00000000      -8.33026791
Rb       0.00000000       0.00000000       2.35515152       0.00000000       0.00000000       8.33026791
2
Properties=species:S:1:pos:R:3:forces:R:3 energy=0.8776544165944973 pbc="F F F"
Rb       0.00000000       0.00000000       0.00000000       0.00000000       0.00000000      -6.82277822
Rb       0.00000000       0.00000000       2.41393939       0.00000000       0.00000000       6.82277822
2
Properties=species:S:1:pos:R:3:forces:R:3 energy=0.5129601584952935 pbc="F F F"
Rb       0.00000000       0.00000000       0.00000000       0.00000000       0.00000000      -5.63420391
Rb       0.00000000       0.00000000       2.47272727       0.00000000       0.00000000       5.63420391
2
Properties=species:S:1:pos:R:3:forces:R:3 energy=0.20991069304094462 pbc="F F F"
Rb       0.00000000       0.00000000       0.00000000       0.00000000       0.00000000      -4.71534872
Rb       0.00000000       0.00000000       2.53151515       0.00000000       0.00000000       4.71534872
2
Properties=species:S:1:pos:R:3:forces:R:3 energy=-0.04542703540233492 pbc="F F F"
Rb       0.00000000       0.00000000       0.00000000       0.00000000       0.00000000      -3.99970269
Rb       0.00000000       0.00000000       2.59030303       0.00000000       0.00000000       3.99970269
2
Properties=species:S:1:pos:R:3:forces:R:3 energy=-0.2631222935041391 pbc="F F F"
Rb       0.00000000       0.00000000       0.00000000       0.00000000       0.00000000      -3.42598343
Rb       0.00000000       0.00000000       2.64909091       0.00000000       0.00000000       3.42598343
2
Properties=species:S:1:pos:R:3:forces:R:3 energy=-0.4502149513668193 pbc="F F F"
Rb       0.00000000       0.00000000       0.00000000       0.00000000       0.00000000      -2.95366073
Rb       0.00000000       0.00000000       2.70787879       0.00000000       0.00000000       2.95366073
2
Properties=species:S:1:pos:R:3:forces:R:3 energy=-0.6119543035865966 pbc="F F F"
Rb       0.00000000       0.00000000       0.00000000       0.00000000       0.00000000      -2.56083560
Rb       0.00000000       0.00000000       2.76666667       0.00000000       0.00000000       2.56083560
2
Properties=species:S:1:pos:R:3:forces:R:3 energy=-0.7526087938930904 pbc="F F F"
Rb       0.00000000       0.00000000       0.00000000       0.00000000       0.00000000      -2.23444510
Rb       0.00000000       0.00000000       2.82545455       0.00000000       0.00000000       2.23444510
2
Properties=species:S:1:pos:R:3:forces:R:3 energy=-0.875755492088276 pbc="F F F"
Rb       0.00000000       0.00000000       0.00000000       0.00000000       0.00000000      -1.96334910
Rb       0.00000000       0.00000000       2.88424242       0.00000000       0.00000000       1.96334910
2
Properties=species:S:1:pos:R:3:forces:R:3 energy=-0.9843102609783465 pbc="F F F"
Rb       0.00000000       0.00000000       0.00000000       0.00000000       0.00000000      -1.73610592
Rb       0.00000000       0.00000000       2.94303030       0.00000000       0.00000000       1.73610592
2
Properties=species:S:1:pos:R:3:forces:R:3 energy=-1.0805173287286998 pbc="F F F"
Rb       0.00000000       0.00000000       0.00000000       0.00000000       0.00000000      -1.54151583
Rb       0.00000000       0.00000000       3.00181818       0.00000000       0.00000000       1.54151583
2
Properties=species:S:1:pos:R:3:forces:R:3 energy=-1.1660079525056857 pbc="F F F"
Rb       0.00000000       0.00000000       0.00000000       0.00000000       0.00000000      -1.37019587
Rb       0.00000000       0.00000000       3.06060606       0.00000000       0.00000000       1.37019587
2
Properties=species:S:1:pos:R:3:forces:R:3 energy=-1.2419509813932192 pbc="F F F"
Rb       0.00000000       0.00000000       0.00000000       0.00000000       0.00000000      -1.21592200
Rb       0.00000000       0.00000000       3.11939394       0.00000000       0.00000000       1.21592200
2
Properties=species:S:1:pos:R:3:forces:R:3 energy=-1.3092459564349217 pbc="F F F"
Rb       0.00000000       0.00000000       0.00000000       0.00000000       0.00000000      -1.07575667
Rb       0.00000000       0.00000000       3.17818182       0.00000000       0.00000000       1.07575667
2
Properties=species:S:1:pos:R:3:forces:R:3 energy=-1.3686984912577136 pbc="F F F"
Rb       0.00000000       0.00000000       0.00000000       0.00000000       0.00000000      -0.94910955
Rb       0.00000000       0.00000000       3.23696970       0.00000000       0.00000000       0.94910955
2
Properties=species:S:1:pos:R:3:forces:R:3 energy=-1.4211089685349756 pbc="F F F"
Rb       0.00000000       0.00000000       0.00000000       0.00000000       0.00000000      -0.83625859
Rb       0.00000000       0.00000000       3.29575758       0.00000000       0.00000000       0.83625859
2
Properties=species:S:1:pos:R:3:forces:R:3 energy=-1.467289470873486 pbc="F F F"
Rb       0.00000000       0.00000000       0.00000000       0.00000000       0.00000000      -0.73704094
Rb       0.00000000       0.00000000       3.35454545       0.00000000       0.00000000       0.73704094
2
Properties=species:S:1:pos:R:3:forces:R:3 energy=-1.5080107326795706 pbc="F F F"
Rb       0.00000000       0.00000000       0.00000000       0.00000000       0.00000000      -0.65020096
Rb       0.00000000       0.00000000       3.41333333       0.00000000       0.00000000       0.65020096
2
Properties=species:S:1:pos:R:3:forces:R:3 energy=-1.5439368388110066 pbc="F F F"
Rb       0.00000000       0.00000000       0.00000000       0.00000000       0.00000000      -0.57350391
Rb       0.00000000       0.00000000       3.47212121       0.00000000       0.00000000       0.57350391
2
Properties=species:S:1:pos:R:3:forces:R:3 energy=-1.5755891152496655 pbc="F F F"
Rb       0.00000000       0.00000000       0.00000000       0.00000000       0.00000000      -0.50439841
Rb       0.00000000       0.00000000       3.53090909       0.00000000       0.00000000       0.50439841
2
Properties=species:S:1:pos:R:3:forces:R:3 energy=-1.6033469809895622 pbc="F F F"
Rb       0.00000000       0.00000000       0.00000000       0.00000000       0.00000000      -0.44069666
Rb       0.00000000       0.00000000       3.58969697       0.00000000       0.00000000       0.44069666
2
Properties=species:S:1:pos:R:3:forces:R:3 energy=-1.6274813503965957 pbc="F F F"
Rb       0.00000000       0.00000000       0.00000000       0.00000000       0.00000000      -0.38091794
Rb       0.00000000       0.00000000       3.64848485       0.00000000       0.00000000       0.38091794
2
Properties=species:S:1:pos:R:3:forces:R:3 energy=-1.6481935255312523 pbc="F F F"
Rb       0.00000000       0.00000000       0.00000000       0.00000000       0.00000000      -0.32419130
Rb       0.00000000       0.00000000       3.70727273       0.00000000       0.00000000       0.32419130
2
Properties=species:S:1:pos:R:3:forces:R:3 energy=-1.665646358874422 pbc="F F F"
Rb       0.00000000       0.00000000       0.00000000       0.00000000       0.00000000      -0.26991132
Rb       0.00000000       0.00000000       3.76606061       0.00000000       0.00000000       0.26991132
2
Properties=species:S:1:pos:R:3:forces:R:3 energy=-1.6799644089666426 pbc="F F F"
Rb       0.00000000       0.00000000       0.00000000       0.00000000       0.00000000      -0.21747270
Rb       0.00000000       0.00000000       3.82484848       0.00000000       0.00000000       0.21747270
2
Properties=species:S:1:pos:R:3:forces:R:3 energy=-1.691238792726969 pbc="F F F"
Rb       0.00000000       0.00000000       0.00000000       0.00000000       0.00000000      -0.16621441
Rb       0.00000000       0.00000000       3.88363636       0.00000000       0.00000000       0.16621441
2
Properties=species:S:1:pos:R:3:forces:R:3 energy=-1.6995201326819975 pbc="F F F"
Rb       0.00000000       0.00000000       0.00000000       0.00000000       0.00000000      -0.11559950
Rb       0.00000000       0.00000000       3.94242424       0.00000000       0.00000000       0.11559950
2
Properties=species:S:1:pos:R:3:forces:R:3 energy=-1.7048388363843305 pbc="F F F"
Rb       0.00000000       0.00000000       0.00000000       0.00000000       0.00000000      -0.06543273
Rb       0.00000000       0.00000000       4.00121212       0.00000000       0.00000000       0.06543273
2
Properties=species:S:1:pos:R:3:forces:R:3 energy=-1.7072268696989576 pbc="F F F"
Rb       0.00000000       0.00000000       0.00000000       0.00000000       0.00000000      -0.01596080
Rb       0.00000000       0.00000000       4.06000000       0.00000000       0.00000000       0.01596080
2
Properties=species:S:1:pos:R:3:forces:R:3 energy=-1.7067398762141706 pbc="F F F"
Rb       0.00000000       0.00000000       0.00000000       0.00000000       0.00000000       0.03223649
Rb       0.00000000       0.00000000       4.11878788       0.00000000       0.00000000      -0.03223649
2
Properties=species:S:1:pos:R:3:forces:R:3 energy=-1.703473949241509 pbc="F F F"
Rb       0.00000000       0.00000000       0.00000000       0.00000000       0.00000000       0.07850095
Rb       0.00000000       0.00000000       4.17757576       0.00000000       0.00000000      -0.07850095
2
Properties=species:S:1:pos:R:3:forces:R:3 energy=-1.6975570034855616 pbc="F F F"
Rb       0.00000000       0.00000000       0.00000000       0.00000000       0.00000000       0.12237493
Rb       0.00000000       0.00000000       4.23636364       0.00000000       0.00000000      -0.12237493
2
Properties=species:S:1:pos:R:3:forces:R:3 energy=-1.6891338463804733 pbc="F F F"
Rb       0.00000000       0.00000000       0.00000000       0.00000000       0.00000000       0.16380596
Rb       0.00000000       0.00000000       4.29515152       0.00000000       0.00000000      -0.16380596
2
Properties=species:S:1:pos:R:3:forces:R:3 energy=-1.6783380056120536 pbc="F F F"
Rb       0.00000000       0.00000000       0.00000000       0.00000000       0.00000000       0.20321037
Rb       0.00000000       0.00000000       4.35393939       0.00000000       0.00000000      -0.20321037
2
Properties=species:S:1:pos:R:3:forces:R:3 energy=-1.6652660297808046 pbc="F F F"
Rb       0.00000000       0.00000000       0.00000000       0.00000000       0.00000000       0.24138078
Rb       0.00000000       0.00000000       4.41272727       0.00000000       0.00000000      -0.24138078
2
Properties=species:S:1:pos:R:3:forces:R:3 energy=-1.6499632150779893 pbc="F F F"
Rb       0.00000000       0.00000000       0.00000000       0.00000000       0.00000000       0.27925029
Rb       0.00000000       0.00000000       4.47151515       0.00000000       0.00000000      -0.27925029
2
Properties=species:S:1:pos:R:3:forces:R:3 energy=-1.632423702033135 pbc="F F F"
Rb       0.00000000       0.00000000       0.00000000       0.00000000       0.00000000       0.31754667
Rb       0.00000000       0.00000000       4.53030303       0.00000000       0.00000000      -0.31754667
2
Properties=species:S:1:pos:R:3:forces:R:3 energy=-1.6126164931389537 pbc="F F F"
Rb       0.00000000       0.00000000       0.00000000       0.00000000       0.00000000       0.35636634
Rb       0.00000000       0.00000000       4.58909091       0.00000000       0.00000000      -0.35636634
2
Properties=species:S:1:pos:R:3:forces:R:3 energy=-1.5905302464760858 pbc="F F F"
Rb       0.00000000       0.00000000       0.00000000       0.00000000       0.00000000       0.39480841
Rb       0.00000000       0.00000000       4.64787879       0.00000000       0.00000000      -0.39480841
2
Properties=species:S:1:pos:R:3:forces:R:3 energy=-1.566244583526179 pbc="F F F"
Rb       0.00000000       0.00000000       0.00000000       0.00000000       0.00000000       0.43075016
Rb       0.00000000       0.00000000       4.70666667       0.00000000       0.00000000      -0.43075016
2
Properties=species:S:1:pos:R:3:forces:R:3 energy=-1.539993853889962 pbc="F F F"
Rb       0.00000000       0.00000000       0.00000000       0.00000000       0.00000000       0.46111012
Rb       0.00000000       0.00000000       4.76545455       0.00000000       0.00000000      -0.46111012
2
Properties=species:S:1:pos:R:3:forces:R:3 energy=-1.5121978588554814 pbc="F F F"
Rb       0.00000000       0.00000000       0.00000000       0.00000000       0.00000000       0.48290586
Rb       0.00000000       0.00000000       4.82424242       0.00000000       0.00000000      -0.48290586
2
Properties=species:S:1:pos:R:3:forces:R:3 energy=-1.483401582257427 pbc="F F F"
Rb       0.00000000       0.00000000       0.00000000       0.00000000       0.00000000       0.49551928
Rb       0.00000000       0.00000000       4.88303030       0.00000000       0.00000000      -0.49551928
2
Properties=species:S:1:pos:R:3:forces:R:3 energy=-1.4540259038020988 pbc="F F F"
Rb       0.00000000       0.00000000       0.00000000       0.00000000       0.00000000       0.50387633
Rb       0.00000000       0.00000000       4.94181818       0.00000000       0.00000000      -0.50387633
2
Properties=species:S:1:pos:R:3:forces:R:3 energy=-1.4239999986525944 pbc="F F F"
Rb       0.00000000       0.00000000       0.00000000       0.00000000       0.00000000       0.52030319
Rb       0.00000000       0.00000000       5.00060606       0.00000000       0.00000000      -0.52030319
2
Properties=species:S:1:pos:R:3:forces:R:3 energy=-1.3923581535631946 pbc="F F F"
Rb       0.00000000       0.00000000       0.00000000       0.00000000       0.00000000       0.56165367
Rb       0.00000000       0.00000000       5.05939394       0.00000000       0.00000000      -0.56165367
2
Properties=species:S:1:pos:R:3:forces:R:3 energy=-1.3572151696265473 pbc="F F F"
Rb       0.00000000       0.00000000       0.00000000       0.00000000       0.00000000       0.64059067
Rb       0.00000000       0.00000000       5.11818182       0.00000000       0.00000000      -0.64059067
2
Properties=species:S:1:pos:R:3:forces:R:3 energy=-1.316334746903944 pbc="F F F"
Rb       0.00000000       0.00000000       0.00000000       0.00000000       0.00000000       0.75492096
Rb       0.00000000       0.00000000       5.17696970       0.00000000       0.00000000      -0.75492096
2
Properties=species:S:1:pos:R:3:forces:R:3 energy=-1.2682436260280114 pbc="F F F"
Rb       0.00000000       0.00000000       0.00000000       0.00000000       0.00000000       0.87951857
Rb       0.00000000       0.00000000       5.23575758       0.00000000       0.00000000      -0.87951857
2
Properties=species:S:1:pos:R:3:forces:R:3 energy=-1.2136651268842713 pbc="F F F"
Rb       0.00000000       0.00000000       0.00000000       0.00000000       0.00000000       0.96658015
Rb       0.00000000       0.00000000       5.29454545       0.00000000       0.00000000      -0.96658015
2
Properties=species:S:1:pos:R:3:forces:R:3 energy=-1.1561421624313275 pbc="F F F"
Rb       0.00000000       0.00000000       0.00000000       0.00000000       0.00000000       0.97809118
Rb       0.00000000       0.00000000       5.35333333       0.00000000       0.00000000      -0.97809118
2
Properties=species:S:1:pos:R:3:forces:R:3 energy=-1.0990701694562464 pbc="F F F"
Rb       0.00000000       0.00000000       0.00000000       0.00000000       0.00000000       0.97328919
Rb       0.00000000       0.00000000       5.41212121       0.00000000       0.00000000      -0.97328919
2
Properties=species:S:1:pos:R:3:forces:R:3 energy=-1.0390839083845123 pbc="F F F"
Rb       0.00000000       0.00000000       0.00000000       0.00000000       0.00000000       1.09310150
Rb       0.00000000       0.00000000       5.47090909       0.00000000       0.00000000      -1.09310150
2
Properties=species:S:1:pos:R:3:forces:R:3 energy=-0.9695939995328439 pbc="F F F"
Rb       0.00000000       0.00000000       0.00000000       0.00000000       0.00000000       1.25299847
Rb       0.00000000       0.00000000       5.52969697       0.00000000       0.00000000      -1.25299847
2
Properties=species:S:1:pos:R:3:forces:R:3 energy=-0.8959285150261951 pbc="F F F"
Rb       0.00000000       0.00000000       0.00000000       0.00000000       0.00000000       1.21548283
Rb       0.00000000       0.00000000       5.58848485       0.00000000       0.00000000      -1.21548283
2
Properties=species:S:1:pos:R:3:forces:R:3 energy=-0.8290949953485052 pbc="F F F"
Rb       0.00000000       0.00000000       0.00000000       0.00000000       0.00000000       1.06299746
Rb       0.00000000       0.00000000       5.64727273       0.00000000       0.00000000      -1.06299746
2
Properties=species:S:1:pos:R:3:forces:R:3 energy=-0.7667656724543939 pbc="F F F"
Rb       0.00000000       0.00000000       0.00000000       0.00000000       0.00000000       1.12110257
Rb       0.00000000       0.00000000       5.70606061       0.00000000       0.00000000      -1.12110257
2
Properties=species:S:1:pos:R:3:forces:R:3 energy=-0.6901172097297864 pbc="F F F"
Rb       0.00000000       0.00000000       0.00000000       0.00000000       0.00000000       1.50339460
Rb       0.00000000       0.00000000       5.76484848       0.00000000       0.00000000      -1.50339460
2
Properties=species:S:1:pos:R:3:forces:R:3 energy=-0.5960108533859241 pbc="F F F"
Rb       0.00000000       0.00000000       0.00000000       0.00000000       0.00000000       1.59208477
Rb       0.00000000       0.00000000       5.82363636       0.00000000       0.00000000      -1.59208477
2
Properties=species:S:1:pos:R:3:forces:R:3 energy=-0.5168200955390377 pbc="F F F"
Rb       0.00000000       0.00000000       0.00000000       0.00000000       0.00000000       1.02725697
Rb       0.00000000       0.00000000       5.88242424       0.00000000       0.00000000      -1.02725697
2
Properties=species:S:1:pos:R:3:forces:R:3 energy=-0.47765705802697583 pbc="F F F"
Rb       0.00000000       0.00000000       0.00000000       0.00000000       0.00000000       0.33229601
Rb       0.00000000       0.00000000       5.94121212       0.00000000       0.00000000      -0.33229601
2
Properties=species:S:1:pos:R:3:forces:R:3 energy=-0.4693161921769455 pbc="F F F"
Rb       0.00000000       0.00000000       0.00000000       0.00000000       0.00000000       0.04632730
Rb       0.00000000       0.00000000       6.00000000       0.00000000       0.00000000      -0.04632730
