2
Properties=species:S:1:pos:R:3:forces:R:3 energy=18093.045895030707 pbc="F F F"
Re       0.00000000       0.00000000       0.00000000       0.00000000       0.00000000 -265252.68750000
Re       0.00000000       0.00000000       0.18000000       0.00000000       0.00000000  265252.68750000
2
Properties=species:S:1:pos:R:3:forces:R:3 energy=8797.486324718206 pbc="F F F"
Re       0.00000000       0.00000000       0.00000000       0.00000000       0.00000000  -88730.74218750
Re       0.00000000       0.00000000       0.23878788       0.00000000       0.00000000   88730.74218750
2
Properties=species:S:1:pos:R:3:forces:R:3 energy=5416.225094249456 pbc="F F F"
Re       0.00000000       0.00000000       0.00000000       0.00000000       0.00000000  -35561.70703125
Re       0.00000000       0.00000000       0.29757576       0.00000000       0.00000000   35561.70703125
2
Properties=species:S:1:pos:R:3:forces:R:3 energy=3941.3269008900807 pbc="F F F"
Re       0.00000000       0.00000000       0.00000000       0.00000000       0.00000000  -17717.15234375
Re       0.00000000       0.00000000       0.35636364       0.00000000       0.00000000   17717.15234375
2
Properties=species:S:1:pos:R:3:forces:R:3 energy=3103.7399868339166 pbc="F F F"
Re       0.00000000       0.00000000       0.00000000       0.00000000       0.00000000  -11977.06152344
Re       0.00000000       0.00000000       0.41515152       0.00000000       0.00000000   11977.06152344
2
Properties=species:S:1:pos:R:3:forces:R:3 energy=2441.946773949627 pbc="F F F"
Re       0.00000000       0.00000000       0.00000000       0.00000000       0.00000000  -10997.53906250
Re       0.00000000       0.00000000       0.47393939       0.00000000       0.00000000   10997.53906250
2
Properties=species:S:1:pos:R:3:forces:R:3 energy=1784.241817907611 pbc="F F F"
Re       0.00000000       0.00000000       0.00000000       0.00000000       0.00000000  -11391.35546875
Re       0.00000000       0.00000000       0.53272727       0.00000000       0.00000000   11391.35546875
2
Properties=species:S:1:pos:R:3:forces:R:3 energy=1170.423092343848 pbc="F F F"
Re       0.00000000       0.00000000       0.00000000       0.00000000       0.00000000    1387.68005371
Re       0.00000000       0.00000000       0.59151515       0.00000000       0.00000000   -1387.68005371
2
Properties=species:S:1:pos:R:3:forces:R:3 energy=1244.1922574240923 pbc="F F F"
Re       0.00000000       0.00000000       0.00000000       0.00000000       0.00000000     320.67745972
Re       0.00000000       0.00000000       0.65030303       0.00000000       0.00000000    -320.67745972
2
Properties=species:S:1:pos:R:3:forces:R:3 energy=1085.9409147076756 pbc="F F F"
Re       0.00000000       0.00000000       0.00000000       0.00000000       0.00000000   -4473.56054688
Re       0.00000000       0.00000000       0.70909091       0.00000000       0.00000000    4473.56054688
2
Properties=species:S:1:pos:R:3:forces:R:3 energy=848.9476286635622 pbc="F F F"
Re       0.00000000       0.00000000       0.00000000       0.00000000       0.00000000   -3630.05786133
Re       0.00000000       0.00000000       0.76787879       0.00000000       0.00000000    3630.05786133
2
Properties=species:S:1:pos:R:3:forces:R:3 energy=658.4642914006026 pbc="F F F"
Re       0.00000000       0.00000000       0.00000000       0.00000000       0.00000000   -2879.44189453
Re       0.00000000       0.00000000       0.82666667       0.00000000       0.00000000    2879.44189453
2
Properties=species:S:1:pos:R:3:forces:R:3 energy=505.88976766805854 pbc="F F F"
Re       0.00000000       0.00000000       0.00000000       0.00000000       0.00000000   -2394.10766602
Re       0.00000000       0.00000000       0.88545455       0.00000000       0.00000000    2394.10766602
2
Properties=species:S:1:pos:R:3:forces:R:3 energy=380.1318944021672 pbc="F F F"
Re       0.00000000       0.00000000       0.00000000       0.00000000       0.00000000   -1911.43066406
Re       0.00000000       0.00000000       0.94424242       0.00000000       0.00000000    1911.43066406
2
Properties=species:S:1:pos:R:3:forces:R:3 energy=283.4111000982358 pbc="F F F"
Re       0.00000000       0.00000000       0.00000000       0.00000000       0.00000000   -1333.37683105
Re       0.00000000       0.00000000       1.00303030       0.00000000       0.00000000    1333.37683105
2
Properties=species:S:1:pos:R:3:forces:R:3 energy=218.86756727355638 pbc="F F F"
Re       0.00000000       0.00000000       0.00000000       0.00000000       0.00000000    -925.94659424
Re       0.00000000       0.00000000       1.06181818       0.00000000       0.00000000     925.94659424
2
Properties=species:S:1:pos:R:3:forces:R:3 energy=171.49397175372843 pbc="F F F"
Re       0.00000000       0.00000000       0.00000000       0.00000000       0.00000000    -670.48590088
Re       0.00000000       0.00000000       1.12060606       0.00000000       0.00000000     670.48590088
2
Properties=species:S:1:pos:R:3:forces:R:3 energy=140.2415464805864 pbc="F F F"
Re       0.00000000       0.00000000       0.00000000       0.00000000       0.00000000    -453.79736328
Re       0.00000000       0.00000000       1.17939394       0.00000000       0.00000000     453.79736328
2
Properties=species:S:1:pos:R:3:forces:R:3 energy=114.02551367595204 pbc="F F F"
Re       0.00000000       0.00000000       0.00000000       0.00000000       0.00000000    -439.77188110
Re       0.00000000       0.00000000       1.23818182       0.00000000       0.00000000     439.77188110
2
Properties=species:S:1:pos:R:3:forces:R:3 energy=89.06672148351004 pbc="F F F"
Re       0.00000000       0.00000000       0.00000000       0.00000000       0.00000000    -409.23519897
Re       0.00000000       0.00000000       1.29696970       0.00000000       0.00000000     409.23519897
2
Properties=species:S:1:pos:R:3:forces:R:3 energy=65.7741360342378 pbc="F F F"
Re       0.00000000       0.00000000       0.00000000       0.00000000       0.00000000    -382.08947754
Re       0.00000000       0.00000000       1.35575758       0.00000000       0.00000000     382.08947754
2
Properties=species:S:1:pos:R:3:forces:R:3 energy=44.601408835553535 pbc="F F F"
Re       0.00000000       0.00000000       0.00000000       0.00000000       0.00000000    -332.65081787
Re       0.00000000       0.00000000       1.41454545       0.00000000       0.00000000     332.65081787
2
Properties=species:S:1:pos:R:3:forces:R:3 energy=27.189380512887418 pbc="F F F"
Re       0.00000000       0.00000000       0.00000000       0.00000000       0.00000000    -257.46417236
Re       0.00000000       0.00000000       1.47333333       0.00000000       0.00000000     257.46417236
2
Properties=species:S:1:pos:R:3:forces:R:3 energy=14.305367989014874 pbc="F F F"
Re       0.00000000       0.00000000       0.00000000       0.00000000       0.00000000    -183.00048828
Re       0.00000000       0.00000000       1.53212121       0.00000000       0.00000000     183.00048828
2
Properties=species:S:1:pos:R:3:forces:R:3 energy=5.31908039920573 pbc="F F F"
Re       0.00000000       0.00000000       0.00000000       0.00000000       0.00000000    -126.00391388
Re       0.00000000       0.00000000       1.59090909       0.00000000       0.00000000     126.00391388
2
Properties=species:S:1:pos:R:3:forces:R:3 energy=-0.8648161385171701 pbc="F F F"
Re       0.00000000       0.00000000       0.00000000       0.00000000       0.00000000     -86.96524811
Re       0.00000000       0.00000000       1.64969697       0.00000000       0.00000000      86.96524811
2
Properties=species:S:1:pos:R:3:forces:R:3 energy=-5.1526607768633 pbc="F F F"
Re       0.00000000       0.00000000       0.00000000       0.00000000       0.00000000     -60.56179428
Re       0.00000000       0.00000000       1.70848485       0.00000000       0.00000000      60.56179428
2
Properties=species:S:1:pos:R:3:forces:R:3 energy=-8.139923214036525 pbc="F F F"
Re       0.00000000       0.00000000       0.00000000       0.00000000       0.00000000     -42.11551285
Re       0.00000000       0.00000000       1.76727273       0.00000000       0.00000000      42.11551285
2
Properties=species:S:1:pos:R:3:forces:R:3 energy=-10.206108019796616 pbc="F F F"
Re       0.00000000       0.00000000       0.00000000       0.00000000       0.00000000     -28.89373207
Re       0.00000000       0.00000000       1.82606061       0.00000000       0.00000000      28.89373207
2
Properties=species:S:1:pos:R:3:forces:R:3 energy=-11.608040091529027 pbc="F F F"
Re       0.00000000       0.00000000       0.00000000       0.00000000       0.00000000     -19.30588341
Re       0.00000000       0.00000000       1.88484848       0.00000000       0.00000000      19.30588341
2
Properties=species:S:1:pos:R:3:forces:R:3 energy=-12.52605566218775 pbc="F F F"
Re       0.00000000       0.00000000       0.00000000       0.00000000       0.00000000     -12.28250217
Re       0.00000000       0.00000000       1.94363636       0.00000000       0.00000000      12.28250217
2
Properties=species:S:1:pos:R:3:forces:R:3 energy=-13.087733676200608 pbc="F F F"
Re       0.00000000       0.00000000       0.00000000       0.00000000       0.00000000      -7.08302069
Re       0.00000000       0.00000000       2.00242424       0.00000000       0.00000000       7.08302069
2
Properties=species:S:1:pos:R:3:forces:R:3 energy=-13.385084545923434 pbc="F F F"
Re       0.00000000       0.00000000       0.00000000       0.00000000       0.00000000      -3.22869539
Re       0.00000000       0.00000000       2.06121212       0.00000000       0.00000000       3.22869539
2
Properties=species:S:1:pos:R:3:forces:R:3 energy=-13.487876140638479 pbc="F F F"
Re       0.00000000       0.00000000       0.00000000       0.00000000       0.00000000      -0.42429167
Re       0.00000000       0.00000000       2.12000000       0.00000000       0.00000000       0.42429167
2
Properties=species:S:1:pos:R:3:forces:R:3 energy=-13.451353853005648 pbc="F F F"
Re       0.00000000       0.00000000       0.00000000       0.00000000       0.00000000       1.54319096
Re       0.00000000       0.00000000       2.17878788       0.00000000       0.00000000      -1.54319096
2
Properties=species:S:1:pos:R:3:forces:R:3 energy=-13.319256427537692 pbc="F F F"
Re       0.00000000       0.00000000       0.00000000       0.00000000       0.00000000       2.85544515
Re       0.00000000       0.00000000       2.23757576       0.00000000       0.00000000      -2.85544515
2
Properties=species:S:1:pos:R:3:forces:R:3 energy=-13.125384903578478 pbc="F F F"
Re       0.00000000       0.00000000       0.00000000       0.00000000       0.00000000       3.66864610
Re       0.00000000       0.00000000       2.29636364       0.00000000       0.00000000      -3.66864610
2
Properties=species:S:1:pos:R:3:forces:R:3 energy=-12.895112601536065 pbc="F F F"
Re       0.00000000       0.00000000       0.00000000       0.00000000       0.00000000       4.11373901
Re       0.00000000       0.00000000       2.35515152       0.00000000       0.00000000      -4.11373901
2
Properties=species:S:1:pos:R:3:forces:R:3 energy=-12.646749402534075 pbc="F F F"
Re       0.00000000       0.00000000       0.00000000       0.00000000       0.00000000       4.30097198
Re       0.00000000       0.00000000       2.41393939       0.00000000       0.00000000      -4.30097198
2
Properties=species:S:1:pos:R:3:forces:R:3 energy=-12.392702382086657 pbc="F F F"
Re       0.00000000       0.00000000       0.00000000       0.00000000       0.00000000       4.32008266
Re       0.00000000       0.00000000       2.47272727       0.00000000       0.00000000      -4.32008266
2
Properties=species:S:1:pos:R:3:forces:R:3 energy=-12.140812495911742 pbc="F F F"
Re       0.00000000       0.00000000       0.00000000       0.00000000       0.00000000       4.23617697
Re       0.00000000       0.00000000       2.53151515       0.00000000       0.00000000      -4.23617697
2
Properties=species:S:1:pos:R:3:forces:R:3 energy=-11.895844385349495 pbc="F F F"
Re       0.00000000       0.00000000       0.00000000       0.00000000       0.00000000       4.08970928
Re       0.00000000       0.00000000       2.59030303       0.00000000       0.00000000      -4.08970928
2
Properties=species:S:1:pos:R:3:forces:R:3 energy=-11.660732393304468 pbc="F F F"
Re       0.00000000       0.00000000       0.00000000       0.00000000       0.00000000       3.90372801
Re       0.00000000       0.00000000       2.64909091       0.00000000       0.00000000      -3.90372801
2
Properties=species:S:1:pos:R:3:forces:R:3 energy=-11.437335398491488 pbc="F F F"
Re       0.00000000       0.00000000       0.00000000       0.00000000       0.00000000       3.69350719
Re       0.00000000       0.00000000       2.70787879       0.00000000       0.00000000      -3.69350719
2
Properties=species:S:1:pos:R:3:forces:R:3 energy=-11.226673906305235 pbc="F F F"
Re       0.00000000       0.00000000       0.00000000       0.00000000       0.00000000       3.47264862
Re       0.00000000       0.00000000       2.76666667       0.00000000       0.00000000      -3.47264862
2
Properties=species:S:1:pos:R:3:forces:R:3 energy=-11.02897431967391 pbc="F F F"
Re       0.00000000       0.00000000       0.00000000       0.00000000       0.00000000       3.25479198
Re       0.00000000       0.00000000       2.82545455       0.00000000       0.00000000      -3.25479198
2
Properties=species:S:1:pos:R:3:forces:R:3 energy=-10.8437391572104 pbc="F F F"
Re       0.00000000       0.00000000       0.00000000       0.00000000       0.00000000       3.04917479
Re       0.00000000       0.00000000       2.88424242       0.00000000       0.00000000      -3.04917479
2
Properties=species:S:1:pos:R:3:forces:R:3 energy=-10.670337255956884 pbc="F F F"
Re       0.00000000       0.00000000       0.00000000       0.00000000       0.00000000       2.84960127
Re       0.00000000       0.00000000       2.94303030       0.00000000       0.00000000      -2.84960127
2
Properties=species:S:1:pos:R:3:forces:R:3 energy=-10.508906113725176 pbc="F F F"
Re       0.00000000       0.00000000       0.00000000       0.00000000       0.00000000       2.63970137
Re       0.00000000       0.00000000       3.00181818       0.00000000       0.00000000      -2.63970137
2
Properties=species:S:1:pos:R:3:forces:R:3 energy=-10.36029240756761 pbc="F F F"
Re       0.00000000       0.00000000       0.00000000       0.00000000       0.00000000       2.41401124
Re       0.00000000       0.00000000       3.06060606       0.00000000       0.00000000      -2.41401124
2
Properties=species:S:1:pos:R:3:forces:R:3 energy=-10.22522979217744 pbc="F F F"
Re       0.00000000       0.00000000       0.00000000       0.00000000       0.00000000       2.18067455
Re       0.00000000       0.00000000       3.11939394       0.00000000       0.00000000      -2.18067455
2
Properties=species:S:1:pos:R:3:forces:R:3 energy=-10.10380945438977 pbc="F F F"
Re       0.00000000       0.00000000       0.00000000       0.00000000       0.00000000       1.95173454
Re       0.00000000       0.00000000       3.17818182       0.00000000       0.00000000      -1.95173454
2
Properties=species:S:1:pos:R:3:forces:R:3 energy=-9.995477149000761 pbc="F F F"
Re       0.00000000       0.00000000       0.00000000       0.00000000       0.00000000       1.73669302
Re       0.00000000       0.00000000       3.23696970       0.00000000       0.00000000      -1.73669302
2
Properties=species:S:1:pos:R:3:forces:R:3 energy=-9.899248945417446 pbc="F F F"
Re       0.00000000       0.00000000       0.00000000       0.00000000       0.00000000       1.54033291
Re       0.00000000       0.00000000       3.29575758       0.00000000       0.00000000      -1.54033291
2
Properties=species:S:1:pos:R:3:forces:R:3 energy=-9.813997019447728 pbc="F F F"
Re       0.00000000       0.00000000       0.00000000       0.00000000       0.00000000       1.36296535
Re       0.00000000       0.00000000       3.35454545       0.00000000       0.00000000      -1.36296535
2
Properties=species:S:1:pos:R:3:forces:R:3 energy=-9.738672351358469 pbc="F F F"
Re       0.00000000       0.00000000       0.00000000       0.00000000       0.00000000       1.20208848
Re       0.00000000       0.00000000       3.41333333       0.00000000       0.00000000      -1.20208848
2
Properties=species:S:1:pos:R:3:forces:R:3 energy=-9.672404467909654 pbc="F F F"
Re       0.00000000       0.00000000       0.00000000       0.00000000       0.00000000       1.05430114
Re       0.00000000       0.00000000       3.47212121       0.00000000       0.00000000      -1.05430114
2
Properties=species:S:1:pos:R:3:forces:R:3 energy=-9.614511701361016 pbc="F F F"
Re       0.00000000       0.00000000       0.00000000       0.00000000       0.00000000       0.91683340
Re       0.00000000       0.00000000       3.53090909       0.00000000       0.00000000      -0.91683340
2
Properties=species:S:1:pos:R:3:forces:R:3 energy=-9.564433513281756 pbc="F F F"
Re       0.00000000       0.00000000       0.00000000       0.00000000       0.00000000       0.78827190
Re       0.00000000       0.00000000       3.58969697       0.00000000       0.00000000      -0.78827190
2
Properties=species:S:1:pos:R:3:forces:R:3 energy=-9.521654894518141 pbc="F F F"
Re       0.00000000       0.00000000       0.00000000       0.00000000       0.00000000       0.66862595
Re       0.00000000       0.00000000       3.64848485       0.00000000       0.00000000      -0.66862595
2
Properties=species:S:1:pos:R:3:forces:R:3 energy=-9.485626795080677 pbc="F F F"
Re       0.00000000       0.00000000       0.00000000       0.00000000       0.00000000       0.55885237
Re       0.00000000       0.00000000       3.70727273       0.00000000       0.00000000      -0.55885237
2
Properties=species:S:1:pos:R:3:forces:R:3 energy=-9.455729637429972 pbc="F F F"
Re       0.00000000       0.00000000       0.00000000       0.00000000       0.00000000       0.46020675
Re       0.00000000       0.00000000       3.76606061       0.00000000       0.00000000      -0.46020675
2
Properties=species:S:1:pos:R:3:forces:R:3 energy=-9.431279133557291 pbc="F F F"
Re       0.00000000       0.00000000       0.00000000       0.00000000       0.00000000       0.37367186
Re       0.00000000       0.00000000       3.82484848       0.00000000       0.00000000      -0.37367186
2
Properties=species:S:1:pos:R:3:forces:R:3 energy=-9.41155126425047 pbc="F F F"
Re       0.00000000       0.00000000       0.00000000       0.00000000       0.00000000       0.29953417
Re       0.00000000       0.00000000       3.88363636       0.00000000       0.00000000      -0.29953417
2
Properties=species:S:1:pos:R:3:forces:R:3 energy=-9.39582792241257 pbc="F F F"
Re       0.00000000       0.00000000       0.00000000       0.00000000       0.00000000       0.23730743
Re       0.00000000       0.00000000       3.94242424       0.00000000       0.00000000      -0.23730743
2
Properties=species:S:1:pos:R:3:forces:R:3 energy=-9.383438893738736 pbc="F F F"
Re       0.00000000       0.00000000       0.00000000       0.00000000       0.00000000       0.18583219
Re       0.00000000       0.00000000       4.00121212       0.00000000       0.00000000      -0.18583219
2
Properties=species:S:1:pos:R:3:forces:R:3 energy=-9.373798324423413 pbc="F F F"
Re       0.00000000       0.00000000       0.00000000       0.00000000       0.00000000       0.14352354
Re       0.00000000       0.00000000       4.06000000       0.00000000       0.00000000      -0.14352354
2
Properties=species:S:1:pos:R:3:forces:R:3 energy=-9.366417996573043 pbc="F F F"
Re       0.00000000       0.00000000       0.00000000       0.00000000       0.00000000       0.10866667
Re       0.00000000       0.00000000       4.11878788       0.00000000       0.00000000      -0.10866667
2
Properties=species:S:1:pos:R:3:forces:R:3 energy=-9.360907340877358 pbc="F F F"
Re       0.00000000       0.00000000       0.00000000       0.00000000       0.00000000       0.07964309
Re       0.00000000       0.00000000       4.17757576       0.00000000       0.00000000      -0.07964309
2
Properties=species:S:1:pos:R:3:forces:R:3 energy=-9.356965997284169 pbc="F F F"
Re       0.00000000       0.00000000       0.00000000       0.00000000       0.00000000       0.05510473
Re       0.00000000       0.00000000       4.23636364       0.00000000       0.00000000      -0.05510473
2
Properties=species:S:1:pos:R:3:forces:R:3 energy=-9.354360584690992 pbc="F F F"
Re       0.00000000       0.00000000       0.00000000       0.00000000       0.00000000       0.03403964
Re       0.00000000       0.00000000       4.29515152       0.00000000       0.00000000      -0.03403964
2
Properties=species:S:1:pos:R:3:forces:R:3 energy=-9.352908950983693 pbc="F F F"
Re       0.00000000       0.00000000       0.00000000       0.00000000       0.00000000       0.01577417
Re       0.00000000       0.00000000       4.35393939       0.00000000       0.00000000      -0.01577417
2
Properties=species:S:1:pos:R:3:forces:R:3 energy=-9.352459835429276 pbc="F F F"
Re       0.00000000       0.00000000       0.00000000       0.00000000       0.00000000      -0.00009963
Re       0.00000000       0.00000000       4.41272727       0.00000000       0.00000000       0.00009963
2
Properties=species:S:1:pos:R:3:forces:R:3 energy=-9.352878671267092 pbc="F F F"
Re       0.00000000       0.00000000       0.00000000       0.00000000       0.00000000      -0.01380059
Re       0.00000000       0.00000000       4.47151515       0.00000000       0.00000000       0.01380059
2
Properties=species:S:1:pos:R:3:forces:R:3 energy=-9.354041857327296 pbc="F F F"
Re       0.00000000       0.00000000       0.00000000       0.00000000       0.00000000      -0.02545313
Re       0.00000000       0.00000000       4.53030303       0.00000000       0.00000000       0.02545313
2
Properties=species:S:1:pos:R:3:forces:R:3 energy=-9.355832835627622 pbc="F F F"
Re       0.00000000       0.00000000       0.00000000       0.00000000       0.00000000      -0.03514729
Re       0.00000000       0.00000000       4.58909091       0.00000000       0.00000000       0.03514729
2
Properties=species:S:1:pos:R:3:forces:R:3 energy=-9.358137383190432 pbc="F F F"
Re       0.00000000       0.00000000       0.00000000       0.00000000       0.00000000      -0.04297499
Re       0.00000000       0.00000000       4.64787879       0.00000000       0.00000000       0.04297499
2
Properties=species:S:1:pos:R:3:forces:R:3 energy=-9.360851117892176 pbc="F F F"
Re       0.00000000       0.00000000       0.00000000       0.00000000       0.00000000      -0.04903644
Re       0.00000000       0.00000000       4.70666667       0.00000000       0.00000000       0.04903644
2
Properties=species:S:1:pos:R:3:forces:R:3 energy=-9.363870807688594 pbc="F F F"
Re       0.00000000       0.00000000       0.00000000       0.00000000       0.00000000      -0.05343328
Re       0.00000000       0.00000000       4.76545455       0.00000000       0.00000000       0.05343328
2
Properties=species:S:1:pos:R:3:forces:R:3 energy=-9.36710299486525 pbc="F F F"
Re       0.00000000       0.00000000       0.00000000       0.00000000       0.00000000      -0.05627024
Re       0.00000000       0.00000000       4.82424242       0.00000000       0.00000000       0.05627024
2
Properties=species:S:1:pos:R:3:forces:R:3 energy=-9.370458178956973 pbc="F F F"
Re       0.00000000       0.00000000       0.00000000       0.00000000       0.00000000      -0.05766328
Re       0.00000000       0.00000000       4.88303030       0.00000000       0.00000000       0.05766328
2
Properties=species:S:1:pos:R:3:forces:R:3 energy=-9.373857324573493 pbc="F F F"
Re       0.00000000       0.00000000       0.00000000       0.00000000       0.00000000      -0.05778510
Re       0.00000000       0.00000000       4.94181818       0.00000000       0.00000000       0.05778510
2
Properties=species:S:1:pos:R:3:forces:R:3 energy=-9.377233752908964 pbc="F F F"
Re       0.00000000       0.00000000       0.00000000       0.00000000       0.00000000      -0.05692282
Re       0.00000000       0.00000000       5.00060606       0.00000000       0.00000000       0.05692282
2
Properties=species:S:1:pos:R:3:forces:R:3 energy=-9.380539792119606 pbc="F F F"
Re       0.00000000       0.00000000       0.00000000       0.00000000       0.00000000      -0.05553147
Re       0.00000000       0.00000000       5.05939394       0.00000000       0.00000000       0.05553147
2
Properties=species:S:1:pos:R:3:forces:R:3 energy=-9.383763781902468 pbc="F F F"
Re       0.00000000       0.00000000       0.00000000       0.00000000       0.00000000      -0.05417920
Re       0.00000000       0.00000000       5.11818182       0.00000000       0.00000000       0.05417920
2
Properties=species:S:1:pos:R:3:forces:R:3 energy=-9.386919570406656 pbc="F F F"
Re       0.00000000       0.00000000       0.00000000       0.00000000       0.00000000      -0.05332017
Re       0.00000000       0.00000000       5.17696970       0.00000000       0.00000000       0.05332017
2
Properties=species:S:1:pos:R:3:forces:R:3 energy=-9.390039784660146 pbc="F F F"
Re       0.00000000       0.00000000       0.00000000       0.00000000       0.00000000      -0.05283755
Re       0.00000000       0.00000000       5.23575758       0.00000000       0.00000000       0.05283755
2
Properties=species:S:1:pos:R:3:forces:R:3 energy=-9.393118556257823 pbc="F F F"
Re       0.00000000       0.00000000       0.00000000       0.00000000       0.00000000      -0.05162853
Re       0.00000000       0.00000000       5.29454545       0.00000000       0.00000000       0.05162853
2
Properties=species:S:1:pos:R:3:forces:R:3 energy=-9.396064797655615 pbc="F F F"
Re       0.00000000       0.00000000       0.00000000       0.00000000       0.00000000      -0.04818021
Re       0.00000000       0.00000000       5.35333333       0.00000000       0.00000000       0.04818021
2
Properties=species:S:1:pos:R:3:forces:R:3 energy=-9.398757417078368 pbc="F F F"
Re       0.00000000       0.00000000       0.00000000       0.00000000       0.00000000      -0.04360349
Re       0.00000000       0.00000000       5.41212121       0.00000000       0.00000000       0.04360349
2
Properties=species:S:1:pos:R:3:forces:R:3 energy=-9.401282848364977 pbc="F F F"
Re       0.00000000       0.00000000       0.00000000       0.00000000       0.00000000      -0.04348096
Re       0.00000000       0.00000000       5.47090909       0.00000000       0.00000000       0.04348096
2
Properties=species:S:1:pos:R:3:forces:R:3 energy=-9.40395886114808 pbc="F F F"
Re       0.00000000       0.00000000       0.00000000       0.00000000       0.00000000      -0.04733321
Re       0.00000000       0.00000000       5.52969697       0.00000000       0.00000000       0.04733321
2
Properties=species:S:1:pos:R:3:forces:R:3 energy=-9.406708942582936 pbc="F F F"
Re       0.00000000       0.00000000       0.00000000       0.00000000       0.00000000      -0.04465983
Re       0.00000000       0.00000000       5.58848485       0.00000000       0.00000000       0.04465983
2
Properties=species:S:1:pos:R:3:forces:R:3 energy=-9.409084301548791 pbc="F F F"
Re       0.00000000       0.00000000       0.00000000       0.00000000       0.00000000      -0.03597754
Re       0.00000000       0.00000000       5.64727273       0.00000000       0.00000000       0.03597754
2
Properties=species:S:1:pos:R:3:forces:R:3 energy=-9.41105154344561 pbc="F F F"
Re       0.00000000       0.00000000       0.00000000       0.00000000       0.00000000      -0.03293620
Re       0.00000000       0.00000000       5.70606061       0.00000000       0.00000000       0.03293620
2
Properties=species:S:1:pos:R:3:forces:R:3 energy=-9.413198739874156 pbc="F F F"
Re       0.00000000       0.00000000       0.00000000       0.00000000       0.00000000      -0.04094814
Re       0.00000000       0.00000000       5.76484848       0.00000000       0.00000000       0.04094814
2
Properties=species:S:1:pos:R:3:forces:R:3 energy=-9.415718868835485 pbc="F F F"
Re       0.00000000       0.00000000       0.00000000       0.00000000       0.00000000      -0.04162530
Re       0.00000000       0.00000000       5.82363636       0.00000000       0.00000000       0.04162530
2
Properties=species:S:1:pos:R:3:forces:R:3 energy=-9.417643013063241 pbc="F F F"
Re       0.00000000       0.00000000       0.00000000       0.00000000       0.00000000      -0.02127798
Re       0.00000000       0.00000000       5.88242424       0.00000000       0.00000000       0.02127798
2
Properties=species:S:1:pos:R:3:forces:R:3 energy=-9.418134580018299 pbc="F F F"
Re       0.00000000       0.00000000       0.00000000       0.00000000       0.00000000       0.00359157
Re       0.00000000       0.00000000       5.94121212       0.00000000       0.00000000      -0.00359157
2
Properties=species:S:1:pos:R:3:forces:R:3 energy=-9.417528838571862 pbc="F F F"
Re       0.00000000       0.00000000       0.00000000       0.00000000       0.00000000       0.01352419
Re       0.00000000       0.00000000       6.00000000       0.00000000       0.00000000      -0.01352419
