2
Properties=species:S:1:pos:R:3:forces:R:3 energy=2043.5163161500705 pbc="F F F"
S        0.00000000       0.00000000       0.00000000       0.00000000       0.00000000  -24266.87304688
S        0.00000000       0.00000000       0.18000000       0.00000000       0.00000000   24266.87304688
2
Properties=species:S:1:pos:R:3:forces:R:3 energy=1141.803791736008 pbc="F F F"
S        0.00000000       0.00000000       0.00000000       0.00000000       0.00000000   -9285.01953125
S        0.00000000       0.00000000       0.23878788       0.00000000       0.00000000    9285.01953125
2
Properties=species:S:1:pos:R:3:forces:R:3 energy=768.4544265048008 pbc="F F F"
S        0.00000000       0.00000000       0.00000000       0.00000000       0.00000000   -4236.39306641
S        0.00000000       0.00000000       0.29757576       0.00000000       0.00000000    4236.39306641
2
Properties=species:S:1:pos:R:3:forces:R:3 energy=585.973408447898 pbc="F F F"
S        0.00000000       0.00000000       0.00000000       0.00000000       0.00000000   -2262.55468750
S        0.00000000       0.00000000       0.35636364       0.00000000       0.00000000    2262.55468750
2
Properties=species:S:1:pos:R:3:forces:R:3 energy=480.1475722820965 pbc="F F F"
S        0.00000000       0.00000000       0.00000000       0.00000000       0.00000000   -1457.63598633
S        0.00000000       0.00000000       0.41515152       0.00000000       0.00000000    1457.63598633
2
Properties=species:S:1:pos:R:3:forces:R:3 energy=405.5371292017082 pbc="F F F"
S        0.00000000       0.00000000       0.00000000       0.00000000       0.00000000   -1125.90454102
S        0.00000000       0.00000000       0.47393939       0.00000000       0.00000000    1125.90454102
2
Properties=species:S:1:pos:R:3:forces:R:3 energy=344.82964025456056 pbc="F F F"
S        0.00000000       0.00000000       0.00000000       0.00000000       0.00000000    -942.96051025
S        0.00000000       0.00000000       0.53272727       0.00000000       0.00000000     942.96051025
2
Properties=species:S:1:pos:R:3:forces:R:3 energy=293.63188646235216 pbc="F F F"
S        0.00000000       0.00000000       0.00000000       0.00000000       0.00000000    -856.55950928
S        0.00000000       0.00000000       0.59151515       0.00000000       0.00000000     856.55950928
2
Properties=species:S:1:pos:R:3:forces:R:3 energy=240.6224262000349 pbc="F F F"
S        0.00000000       0.00000000       0.00000000       0.00000000       0.00000000    -846.91809082
S        0.00000000       0.00000000       0.65030303       0.00000000       0.00000000     846.91809082
2
Properties=species:S:1:pos:R:3:forces:R:3 energy=196.64917515503674 pbc="F F F"
S        0.00000000       0.00000000       0.00000000       0.00000000       0.00000000    -659.71563721
S        0.00000000       0.00000000       0.70909091       0.00000000       0.00000000     659.71563721
2
Properties=species:S:1:pos:R:3:forces:R:3 energy=162.62560077893374 pbc="F F F"
S        0.00000000       0.00000000       0.00000000       0.00000000       0.00000000    -504.22683716
S        0.00000000       0.00000000       0.76787879       0.00000000       0.00000000     504.22683716
2
Properties=species:S:1:pos:R:3:forces:R:3 energy=136.10629907601233 pbc="F F F"
S        0.00000000       0.00000000       0.00000000       0.00000000       0.00000000    -410.39035034
S        0.00000000       0.00000000       0.82666667       0.00000000       0.00000000     410.39035034
2
Properties=species:S:1:pos:R:3:forces:R:3 energy=113.41726652122603 pbc="F F F"
S        0.00000000       0.00000000       0.00000000       0.00000000       0.00000000    -367.89126587
S        0.00000000       0.00000000       0.88545455       0.00000000       0.00000000     367.89126587
2
Properties=species:S:1:pos:R:3:forces:R:3 energy=92.0384379019923 pbc="F F F"
S        0.00000000       0.00000000       0.00000000       0.00000000       0.00000000    -363.05740356
S        0.00000000       0.00000000       0.94424242       0.00000000       0.00000000     363.05740356
2
Properties=species:S:1:pos:R:3:forces:R:3 energy=71.17151926813773 pbc="F F F"
S        0.00000000       0.00000000       0.00000000       0.00000000       0.00000000    -339.29611206
S        0.00000000       0.00000000       1.00303030       0.00000000       0.00000000     339.29611206
2
Properties=species:S:1:pos:R:3:forces:R:3 energy=52.77503737037465 pbc="F F F"
S        0.00000000       0.00000000       0.00000000       0.00000000       0.00000000    -284.54830933
S        0.00000000       0.00000000       1.06181818       0.00000000       0.00000000     284.54830933
2
Properties=species:S:1:pos:R:3:forces:R:3 energy=37.71758369152702 pbc="F F F"
S        0.00000000       0.00000000       0.00000000       0.00000000       0.00000000    -228.29862976
S        0.00000000       0.00000000       1.12060606       0.00000000       0.00000000     228.29862976
2
Properties=species:S:1:pos:R:3:forces:R:3 energy=25.8425231467438 pbc="F F F"
S        0.00000000       0.00000000       0.00000000       0.00000000       0.00000000    -176.77668762
S        0.00000000       0.00000000       1.17939394       0.00000000       0.00000000     176.77668762
2
Properties=species:S:1:pos:R:3:forces:R:3 energy=16.78401888277934 pbc="F F F"
S        0.00000000       0.00000000       0.00000000       0.00000000       0.00000000    -132.75318909
S        0.00000000       0.00000000       1.23818182       0.00000000       0.00000000     132.75318909
2
Properties=species:S:1:pos:R:3:forces:R:3 energy=10.067203363997873 pbc="F F F"
S        0.00000000       0.00000000       0.00000000       0.00000000       0.00000000     -97.25513458
S        0.00000000       0.00000000       1.29696970       0.00000000       0.00000000      97.25513458
2
Properties=species:S:1:pos:R:3:forces:R:3 energy=5.170247794755351 pbc="F F F"
S        0.00000000       0.00000000       0.00000000       0.00000000       0.00000000     -70.79063416
S        0.00000000       0.00000000       1.35575758       0.00000000       0.00000000      70.79063416
2
Properties=species:S:1:pos:R:3:forces:R:3 energy=1.5969487845196428 pbc="F F F"
S        0.00000000       0.00000000       0.00000000       0.00000000       0.00000000     -51.80342102
S        0.00000000       0.00000000       1.41454545       0.00000000       0.00000000      51.80342102
2
Properties=species:S:1:pos:R:3:forces:R:3 energy=-1.0193628843959874 pbc="F F F"
S        0.00000000       0.00000000       0.00000000       0.00000000       0.00000000     -37.89445114
S        0.00000000       0.00000000       1.47333333       0.00000000       0.00000000      37.89445114
2
Properties=species:S:1:pos:R:3:forces:R:3 energy=-2.9267266660012026 pbc="F F F"
S        0.00000000       0.00000000       0.00000000       0.00000000       0.00000000     -27.48505974
S        0.00000000       0.00000000       1.53212121       0.00000000       0.00000000      27.48505974
2
Properties=species:S:1:pos:R:3:forces:R:3 energy=-4.300096385448758 pbc="F F F"
S        0.00000000       0.00000000       0.00000000       0.00000000       0.00000000     -19.59287643
S        0.00000000       0.00000000       1.59090909       0.00000000       0.00000000      19.59287643
2
Properties=species:S:1:pos:R:3:forces:R:3 energy=-5.266048641941694 pbc="F F F"
S        0.00000000       0.00000000       0.00000000       0.00000000       0.00000000     -13.52742481
S        0.00000000       0.00000000       1.64969697       0.00000000       0.00000000      13.52742481
2
Properties=species:S:1:pos:R:3:forces:R:3 energy=-5.916654713753378 pbc="F F F"
S        0.00000000       0.00000000       0.00000000       0.00000000       0.00000000      -8.79767990
S        0.00000000       0.00000000       1.70848485       0.00000000       0.00000000       8.79767990
2
Properties=species:S:1:pos:R:3:forces:R:3 energy=-6.320189708915187 pbc="F F F"
S        0.00000000       0.00000000       0.00000000       0.00000000       0.00000000      -5.07993174
S        0.00000000       0.00000000       1.76727273       0.00000000       0.00000000       5.07993174
2
Properties=species:S:1:pos:R:3:forces:R:3 energy=-6.529846751611385 pbc="F F F"
S        0.00000000       0.00000000       0.00000000       0.00000000       0.00000000      -2.17666149
S        0.00000000       0.00000000       1.82606061       0.00000000       0.00000000       2.17666149
2
Properties=species:S:1:pos:R:3:forces:R:3 energy=-6.589610687636441 pbc="F F F"
S        0.00000000       0.00000000       0.00000000       0.00000000       0.00000000       0.03714278
S        0.00000000       0.00000000       1.88484848       0.00000000       0.00000000      -0.03714278
2
Properties=species:S:1:pos:R:3:forces:R:3 energy=-6.537004656922819 pbc="F F F"
S        0.00000000       0.00000000       0.00000000       0.00000000       0.00000000       1.66314662
S        0.00000000       0.00000000       1.94363636       0.00000000       0.00000000      -1.66314662
2
Properties=species:S:1:pos:R:3:forces:R:3 energy=-6.403485881053568 pbc="F F F"
S        0.00000000       0.00000000       0.00000000       0.00000000       0.00000000       2.80873752
S        0.00000000       0.00000000       2.00242424       0.00000000       0.00000000      -2.80873752
2
Properties=species:S:1:pos:R:3:forces:R:3 energy=-6.213903483574341 pbc="F F F"
S        0.00000000       0.00000000       0.00000000       0.00000000       0.00000000       3.58986330
S        0.00000000       0.00000000       2.06121212       0.00000000       0.00000000      -3.58986330
2
Properties=species:S:1:pos:R:3:forces:R:3 energy=-5.9863722485237085 pbc="F F F"
S        0.00000000       0.00000000       0.00000000       0.00000000       0.00000000       4.11690855
S        0.00000000       0.00000000       2.12000000       0.00000000       0.00000000      -4.11690855
2
Properties=species:S:1:pos:R:3:forces:R:3 energy=-5.733008205938048 pbc="F F F"
S        0.00000000       0.00000000       0.00000000       0.00000000       0.00000000       4.48221016
S        0.00000000       0.00000000       2.17878788       0.00000000       0.00000000      -4.48221016
2
Properties=species:S:1:pos:R:3:forces:R:3 energy=-5.46117822714221 pbc="F F F"
S        0.00000000       0.00000000       0.00000000       0.00000000       0.00000000       4.75449705
S        0.00000000       0.00000000       2.23757576       0.00000000       0.00000000      -4.75449705
2
Properties=species:S:1:pos:R:3:forces:R:3 energy=-5.17498557373395 pbc="F F F"
S        0.00000000       0.00000000       0.00000000       0.00000000       0.00000000       4.97484779
S        0.00000000       0.00000000       2.29636364       0.00000000       0.00000000      -4.97484779
2
Properties=species:S:1:pos:R:3:forces:R:3 energy=-4.877186676757938 pbc="F F F"
S        0.00000000       0.00000000       0.00000000       0.00000000       0.00000000       5.14645910
S        0.00000000       0.00000000       2.35515152       0.00000000       0.00000000      -5.14645910
2
Properties=species:S:1:pos:R:3:forces:R:3 energy=-4.571549833051648 pbc="F F F"
S        0.00000000       0.00000000       0.00000000       0.00000000       0.00000000       5.23259592
S        0.00000000       0.00000000       2.41393939       0.00000000       0.00000000      -5.23259592
2
Properties=species:S:1:pos:R:3:forces:R:3 energy=-4.264678639881945 pbc="F F F"
S        0.00000000       0.00000000       0.00000000       0.00000000       0.00000000       5.18078899
S        0.00000000       0.00000000       2.47272727       0.00000000       0.00000000      -5.18078899
2
Properties=species:S:1:pos:R:3:forces:R:3 energy=-3.965704292106343 pbc="F F F"
S        0.00000000       0.00000000       0.00000000       0.00000000       0.00000000       4.96272373
S        0.00000000       0.00000000       2.53151515       0.00000000       0.00000000      -4.96272373
2
Properties=species:S:1:pos:R:3:forces:R:3 energy=-3.684116525808225 pbc="F F F"
S        0.00000000       0.00000000       0.00000000       0.00000000       0.00000000       4.59605551
S        0.00000000       0.00000000       2.59030303       0.00000000       0.00000000      -4.59605551
2
Properties=species:S:1:pos:R:3:forces:R:3 energy=-3.427215631741753 pbc="F F F"
S        0.00000000       0.00000000       0.00000000       0.00000000       0.00000000       4.13288307
S        0.00000000       0.00000000       2.64909091       0.00000000       0.00000000      -4.13288307
2
Properties=species:S:1:pos:R:3:forces:R:3 energy=-3.1989229274097046 pbc="F F F"
S        0.00000000       0.00000000       0.00000000       0.00000000       0.00000000       3.63180470
S        0.00000000       0.00000000       2.70787879       0.00000000       0.00000000      -3.63180470
2
Properties=species:S:1:pos:R:3:forces:R:3 energy=-3.0000630912812096 pbc="F F F"
S        0.00000000       0.00000000       0.00000000       0.00000000       0.00000000       3.13716865
S        0.00000000       0.00000000       2.76666667       0.00000000       0.00000000      -3.13716865
2
Properties=species:S:1:pos:R:3:forces:R:3 energy=-2.82942826209572 pbc="F F F"
S        0.00000000       0.00000000       0.00000000       0.00000000       0.00000000       2.67465830
S        0.00000000       0.00000000       2.82545455       0.00000000       0.00000000      -2.67465830
2
Properties=species:S:1:pos:R:3:forces:R:3 energy=-2.684707839646776 pbc="F F F"
S        0.00000000       0.00000000       0.00000000       0.00000000       0.00000000       2.25693703
S        0.00000000       0.00000000       2.88424242       0.00000000       0.00000000      -2.25693703
2
Properties=species:S:1:pos:R:3:forces:R:3 energy=-2.563075330050561 pbc="F F F"
S        0.00000000       0.00000000       0.00000000       0.00000000       0.00000000       1.88969898
S        0.00000000       0.00000000       2.94303030       0.00000000       0.00000000      -1.88969898
2
Properties=species:S:1:pos:R:3:forces:R:3 energy=-2.4615064665564175 pbc="F F F"
S        0.00000000       0.00000000       0.00000000       0.00000000       0.00000000       1.57431686
S        0.00000000       0.00000000       3.00181818       0.00000000       0.00000000      -1.57431686
2
Properties=species:S:1:pos:R:3:forces:R:3 energy=-2.376996956200907 pbc="F F F"
S        0.00000000       0.00000000       0.00000000       0.00000000       0.00000000       1.30873919
S        0.00000000       0.00000000       3.06060606       0.00000000       0.00000000      -1.30873919
2
Properties=species:S:1:pos:R:3:forces:R:3 energy=-2.30674459192454 pbc="F F F"
S        0.00000000       0.00000000       0.00000000       0.00000000       0.00000000       1.08833718
S        0.00000000       0.00000000       3.11939394       0.00000000       0.00000000      -1.08833718
2
Properties=species:S:1:pos:R:3:forces:R:3 energy=-2.2482670905467055 pbc="F F F"
S        0.00000000       0.00000000       0.00000000       0.00000000       0.00000000       0.90707111
S        0.00000000       0.00000000       3.17818182       0.00000000       0.00000000      -0.90707111
2
Properties=species:S:1:pos:R:3:forces:R:3 energy=-2.199452074976234 pbc="F F F"
S        0.00000000       0.00000000       0.00000000       0.00000000       0.00000000       0.75860113
S        0.00000000       0.00000000       3.23696970       0.00000000       0.00000000      -0.75860113
2
Properties=species:S:1:pos:R:3:forces:R:3 energy=-2.1585475009583552 pbc="F F F"
S        0.00000000       0.00000000       0.00000000       0.00000000       0.00000000       0.63705295
S        0.00000000       0.00000000       3.29575758       0.00000000       0.00000000      -0.63705295
2
Properties=species:S:1:pos:R:3:forces:R:3 energy=-2.1241214617053967 pbc="F F F"
S        0.00000000       0.00000000       0.00000000       0.00000000       0.00000000       0.53741544
S        0.00000000       0.00000000       3.35454545       0.00000000       0.00000000      -0.53741544
2
Properties=species:S:1:pos:R:3:forces:R:3 energy=-2.0950112138381907 pbc="F F F"
S        0.00000000       0.00000000       0.00000000       0.00000000       0.00000000       0.45559961
S        0.00000000       0.00000000       3.41333333       0.00000000       0.00000000      -0.45559961
2
Properties=species:S:1:pos:R:3:forces:R:3 energy=-2.070268941495099 pbc="F F F"
S        0.00000000       0.00000000       0.00000000       0.00000000       0.00000000       0.38836026
S        0.00000000       0.00000000       3.47212121       0.00000000       0.00000000      -0.38836026
2
Properties=species:S:1:pos:R:3:forces:R:3 energy=-2.04911496135016 pbc="F F F"
S        0.00000000       0.00000000       0.00000000       0.00000000       0.00000000       0.33313918
S        0.00000000       0.00000000       3.53090909       0.00000000       0.00000000      -0.33313918
2
Properties=species:S:1:pos:R:3:forces:R:3 energy=-2.0309045333293443 pbc="F F F"
S        0.00000000       0.00000000       0.00000000       0.00000000       0.00000000       0.28790426
S        0.00000000       0.00000000       3.58969697       0.00000000       0.00000000      -0.28790426
2
Properties=species:S:1:pos:R:3:forces:R:3 energy=-2.015100474568145 pbc="F F F"
S        0.00000000       0.00000000       0.00000000       0.00000000       0.00000000       0.25102159
S        0.00000000       0.00000000       3.64848485       0.00000000       0.00000000      -0.25102159
2
Properties=species:S:1:pos:R:3:forces:R:3 energy=-2.0012532740509323 pbc="F F F"
S        0.00000000       0.00000000       0.00000000       0.00000000       0.00000000       0.22114097
S        0.00000000       0.00000000       3.70727273       0.00000000       0.00000000      -0.22114097
2
Properties=species:S:1:pos:R:3:forces:R:3 energy=-1.9889852381914022 pbc="F F F"
S        0.00000000       0.00000000       0.00000000       0.00000000       0.00000000       0.19711296
S        0.00000000       0.00000000       3.76606061       0.00000000       0.00000000      -0.19711296
2
Properties=species:S:1:pos:R:3:forces:R:3 energy=-1.977982572750274 pbc="F F F"
S        0.00000000       0.00000000       0.00000000       0.00000000       0.00000000       0.17794369
S        0.00000000       0.00000000       3.82484848       0.00000000       0.00000000      -0.17794369
2
Properties=species:S:1:pos:R:3:forces:R:3 energy=-1.9679852330386125 pbc="F F F"
S        0.00000000       0.00000000       0.00000000       0.00000000       0.00000000       0.16276309
S        0.00000000       0.00000000       3.88363636       0.00000000       0.00000000      -0.16276309
2
Properties=species:S:1:pos:R:3:forces:R:3 energy=-1.958782220902561 pbc="F F F"
S        0.00000000       0.00000000       0.00000000       0.00000000       0.00000000       0.15082045
S        0.00000000       0.00000000       3.94242424       0.00000000       0.00000000      -0.15082045
2
Properties=species:S:1:pos:R:3:forces:R:3 energy=-1.9502018436556474 pbc="F F F"
S        0.00000000       0.00000000       0.00000000       0.00000000       0.00000000       0.14147654
S        0.00000000       0.00000000       4.00121212       0.00000000       0.00000000      -0.14147654
2
Properties=species:S:1:pos:R:3:forces:R:3 energy=-1.9421075021558738 pbc="F F F"
S        0.00000000       0.00000000       0.00000000       0.00000000       0.00000000       0.13419680
S        0.00000000       0.00000000       4.06000000       0.00000000       0.00000000      -0.13419680
2
Properties=species:S:1:pos:R:3:forces:R:3 energy=-1.934391775106708 pbc="F F F"
S        0.00000000       0.00000000       0.00000000       0.00000000       0.00000000       0.12853616
S        0.00000000       0.00000000       4.11878788       0.00000000       0.00000000      -0.12853616
2
Properties=species:S:1:pos:R:3:forces:R:3 energy=-1.926970644742119 pbc="F F F"
S        0.00000000       0.00000000       0.00000000       0.00000000       0.00000000       0.12411328
S        0.00000000       0.00000000       4.17757576       0.00000000       0.00000000      -0.12411328
2
Properties=species:S:1:pos:R:3:forces:R:3 energy=-1.919781211259233 pbc="F F F"
S        0.00000000       0.00000000       0.00000000       0.00000000       0.00000000       0.12059315
S        0.00000000       0.00000000       4.23636364       0.00000000       0.00000000      -0.12059315
2
Properties=species:S:1:pos:R:3:forces:R:3 energy=-1.9127800112169888 pbc="F F F"
S        0.00000000       0.00000000       0.00000000       0.00000000       0.00000000       0.11766773
S        0.00000000       0.00000000       4.29515152       0.00000000       0.00000000      -0.11766773
2
Properties=species:S:1:pos:R:3:forces:R:3 energy=-1.9059403628375897 pbc="F F F"
S        0.00000000       0.00000000       0.00000000       0.00000000       0.00000000       0.11505894
S        0.00000000       0.00000000       4.35393939       0.00000000       0.00000000      -0.11505894
2
Properties=species:S:1:pos:R:3:forces:R:3 energy=-1.8992506178808943 pbc="F F F"
S        0.00000000       0.00000000       0.00000000       0.00000000       0.00000000       0.11251855
S        0.00000000       0.00000000       4.41272727       0.00000000       0.00000000      -0.11251855
2
Properties=species:S:1:pos:R:3:forces:R:3 energy=-1.8927133354749426 pbc="F F F"
S        0.00000000       0.00000000       0.00000000       0.00000000       0.00000000       0.10984205
S        0.00000000       0.00000000       4.47151515       0.00000000       0.00000000      -0.10984205
2
Properties=species:S:1:pos:R:3:forces:R:3 energy=-1.8863417557304671 pbc="F F F"
S        0.00000000       0.00000000       0.00000000       0.00000000       0.00000000       0.10686258
S        0.00000000       0.00000000       4.53030303       0.00000000       0.00000000      -0.10686258
2
Properties=species:S:1:pos:R:3:forces:R:3 energy=-1.8801577779347056 pbc="F F F"
S        0.00000000       0.00000000       0.00000000       0.00000000       0.00000000       0.10343815
S        0.00000000       0.00000000       4.58909091       0.00000000       0.00000000      -0.10343815
2
Properties=species:S:1:pos:R:3:forces:R:3 energy=-1.8741914563717936 pbc="F F F"
S        0.00000000       0.00000000       0.00000000       0.00000000       0.00000000       0.09943573
S        0.00000000       0.00000000       4.64787879       0.00000000       0.00000000      -0.09943573
2
Properties=species:S:1:pos:R:3:forces:R:3 energy=-1.868480220502671 pbc="F F F"
S        0.00000000       0.00000000       0.00000000       0.00000000       0.00000000       0.09472319
S        0.00000000       0.00000000       4.70666667       0.00000000       0.00000000      -0.09472319
2
Properties=species:S:1:pos:R:3:forces:R:3 energy=-1.8630701066557536 pbc="F F F"
S        0.00000000       0.00000000       0.00000000       0.00000000       0.00000000       0.08919784
S        0.00000000       0.00000000       4.76545455       0.00000000       0.00000000      -0.08919784
2
Properties=species:S:1:pos:R:3:forces:R:3 energy=-1.8580093706184968 pbc="F F F"
S        0.00000000       0.00000000       0.00000000       0.00000000       0.00000000       0.08283469
S        0.00000000       0.00000000       4.82424242       0.00000000       0.00000000      -0.08283469
2
Properties=species:S:1:pos:R:3:forces:R:3 energy=-1.8533446036240389 pbc="F F F"
S        0.00000000       0.00000000       0.00000000       0.00000000       0.00000000       0.07579282
S        0.00000000       0.00000000       4.88303030       0.00000000       0.00000000      -0.07579282
2
Properties=species:S:1:pos:R:3:forces:R:3 energy=-1.8491027539232339 pbc="F F F"
S        0.00000000       0.00000000       0.00000000       0.00000000       0.00000000       0.06852520
S        0.00000000       0.00000000       4.94181818       0.00000000       0.00000000      -0.06852520
2
Properties=species:S:1:pos:R:3:forces:R:3 energy=-1.8452753060032296 pbc="F F F"
S        0.00000000       0.00000000       0.00000000       0.00000000       0.00000000       0.06187792
S        0.00000000       0.00000000       5.00060606       0.00000000       0.00000000      -0.06187792
2
Properties=species:S:1:pos:R:3:forces:R:3 energy=-1.8417915099744289 pbc="F F F"
S        0.00000000       0.00000000       0.00000000       0.00000000       0.00000000       0.05705934
S        0.00000000       0.00000000       5.05939394       0.00000000       0.00000000      -0.05705934
2
Properties=species:S:1:pos:R:3:forces:R:3 energy=-1.8385045374537896 pbc="F F F"
S        0.00000000       0.00000000       0.00000000       0.00000000       0.00000000       0.05538589
S        0.00000000       0.00000000       5.11818182       0.00000000       0.00000000      -0.05538589
2
Properties=species:S:1:pos:R:3:forces:R:3 energy=-1.8352003450258967 pbc="F F F"
S        0.00000000       0.00000000       0.00000000       0.00000000       0.00000000       0.05772056
S        0.00000000       0.00000000       5.17696970       0.00000000       0.00000000      -0.05772056
2
Properties=species:S:1:pos:R:3:forces:R:3 energy=-1.8316458395476731 pbc="F F F"
S        0.00000000       0.00000000       0.00000000       0.00000000       0.00000000       0.06369824
S        0.00000000       0.00000000       5.23575758       0.00000000       0.00000000      -0.06369824
2
Properties=species:S:1:pos:R:3:forces:R:3 energy=-1.8276814035640037 pbc="F F F"
S        0.00000000       0.00000000       0.00000000       0.00000000       0.00000000       0.07115099
S        0.00000000       0.00000000       5.29454545       0.00000000       0.00000000      -0.07115099
2
Properties=species:S:1:pos:R:3:forces:R:3 energy=-1.823319007720858 pbc="F F F"
S        0.00000000       0.00000000       0.00000000       0.00000000       0.00000000       0.07665452
S        0.00000000       0.00000000       5.35333333       0.00000000       0.00000000      -0.07665452
2
Properties=species:S:1:pos:R:3:forces:R:3 energy=-1.818743044438362 pbc="F F F"
S        0.00000000       0.00000000       0.00000000       0.00000000       0.00000000       0.07855378
S        0.00000000       0.00000000       5.41212121       0.00000000       0.00000000      -0.07855378
2
Properties=species:S:1:pos:R:3:forces:R:3 energy=-1.8140802733848753 pbc="F F F"
S        0.00000000       0.00000000       0.00000000       0.00000000       0.00000000       0.08058858
S        0.00000000       0.00000000       5.47090909       0.00000000       0.00000000      -0.08058858
2
Properties=species:S:1:pos:R:3:forces:R:3 energy=-1.8092176550313797 pbc="F F F"
S        0.00000000       0.00000000       0.00000000       0.00000000       0.00000000       0.08460042
S        0.00000000       0.00000000       5.52969697       0.00000000       0.00000000      -0.08460042
2
Properties=species:S:1:pos:R:3:forces:R:3 energy=-1.804277050555993 pbc="F F F"
S        0.00000000       0.00000000       0.00000000       0.00000000       0.00000000       0.08164570
S        0.00000000       0.00000000       5.58848485       0.00000000       0.00000000      -0.08164570
2
Properties=species:S:1:pos:R:3:forces:R:3 energy=-1.799808112175918 pbc="F F F"
S        0.00000000       0.00000000       0.00000000       0.00000000       0.00000000       0.06940314
S        0.00000000       0.00000000       5.64727273       0.00000000       0.00000000      -0.06940314
2
Properties=species:S:1:pos:R:3:forces:R:3 energy=-1.7961163997926446 pbc="F F F"
S        0.00000000       0.00000000       0.00000000       0.00000000       0.00000000       0.05741613
S        0.00000000       0.00000000       5.70606061       0.00000000       0.00000000      -0.05741613
2
Properties=species:S:1:pos:R:3:forces:R:3 energy=-1.7928277995534097 pbc="F F F"
S        0.00000000       0.00000000       0.00000000       0.00000000       0.00000000       0.05592810
S        0.00000000       0.00000000       5.76484848       0.00000000       0.00000000      -0.05592810
2
Properties=species:S:1:pos:R:3:forces:R:3 energy=-1.7895614646464666 pbc="F F F"
S        0.00000000       0.00000000       0.00000000       0.00000000       0.00000000       0.05314500
S        0.00000000       0.00000000       5.82363636       0.00000000       0.00000000      -0.05314500
2
Properties=species:S:1:pos:R:3:forces:R:3 energy=-1.7869329448415885 pbc="F F F"
S        0.00000000       0.00000000       0.00000000       0.00000000       0.00000000       0.03418481
S        0.00000000       0.00000000       5.88242424       0.00000000       0.00000000      -0.03418481
2
Properties=species:S:1:pos:R:3:forces:R:3 energy=-1.7856133935085559 pbc="F F F"
S        0.00000000       0.00000000       0.00000000       0.00000000       0.00000000       0.01156654
S        0.00000000       0.00000000       5.94121212       0.00000000       0.00000000      -0.01156654
2
Properties=species:S:1:pos:R:3:forces:R:3 energy=-1.785301504328204 pbc="F F F"
S        0.00000000       0.00000000       0.00000000       0.00000000       0.00000000       0.00211222
S        0.00000000       0.00000000       6.00000000       0.00000000       0.00000000      -0.00211222
