2
Properties=species:S:1:pos:R:3:forces:R:3 energy=5552.292962565453 pbc="F F F"
Se       0.00000000       0.00000000       0.00000000       0.00000000       0.00000000  -80024.16406250
Se       0.00000000       0.00000000       0.18000000       0.00000000       0.00000000   80024.16406250
2
Properties=species:S:1:pos:R:3:forces:R:3 energy=2665.5493102217033 pbc="F F F"
Se       0.00000000       0.00000000       0.00000000       0.00000000       0.00000000  -28569.03906250
Se       0.00000000       0.00000000       0.23878788       0.00000000       0.00000000   28569.03906250
2
Properties=species:S:1:pos:R:3:forces:R:3 energy=1552.120843427996 pbc="F F F"
Se       0.00000000       0.00000000       0.00000000       0.00000000       0.00000000  -12077.91210938
Se       0.00000000       0.00000000       0.29757576       0.00000000       0.00000000   12077.91210938
2
Properties=species:S:1:pos:R:3:forces:R:3 energy=1054.908196946789 pbc="F F F"
Se       0.00000000       0.00000000       0.00000000       0.00000000       0.00000000   -5766.61230469
Se       0.00000000       0.00000000       0.35636364       0.00000000       0.00000000    5766.61230469
2
Properties=species:S:1:pos:R:3:forces:R:3 energy=804.7936339680111 pbc="F F F"
Se       0.00000000       0.00000000       0.00000000       0.00000000       0.00000000   -3111.23364258
Se       0.00000000       0.00000000       0.41515152       0.00000000       0.00000000    3111.23364258
2
Properties=species:S:1:pos:R:3:forces:R:3 energy=659.9005675871038 pbc="F F F"
Se       0.00000000       0.00000000       0.00000000       0.00000000       0.00000000   -1983.02111816
Se       0.00000000       0.00000000       0.47393939       0.00000000       0.00000000    1983.02111816
2
Properties=species:S:1:pos:R:3:forces:R:3 energy=558.2298522962542 pbc="F F F"
Se       0.00000000       0.00000000       0.00000000       0.00000000       0.00000000   -1556.03637695
Se       0.00000000       0.00000000       0.53272727       0.00000000       0.00000000    1556.03637695
2
Properties=species:S:1:pos:R:3:forces:R:3 energy=469.41399543552035 pbc="F F F"
Se       0.00000000       0.00000000       0.00000000       0.00000000       0.00000000   -1470.18640137
Se       0.00000000       0.00000000       0.59151515       0.00000000       0.00000000    1470.18640137
2
Properties=species:S:1:pos:R:3:forces:R:3 energy=384.3428895956985 pbc="F F F"
Se       0.00000000       0.00000000       0.00000000       0.00000000       0.00000000   -1402.82653809
Se       0.00000000       0.00000000       0.65030303       0.00000000       0.00000000    1402.82653809
2
Properties=species:S:1:pos:R:3:forces:R:3 energy=311.4738101927563 pbc="F F F"
Se       0.00000000       0.00000000       0.00000000       0.00000000       0.00000000   -1043.35961914
Se       0.00000000       0.00000000       0.70909091       0.00000000       0.00000000    1043.35961914
2
Properties=species:S:1:pos:R:3:forces:R:3 energy=257.40392522395405 pbc="F F F"
Se       0.00000000       0.00000000       0.00000000       0.00000000       0.00000000    -832.29382324
Se       0.00000000       0.00000000       0.76787879       0.00000000       0.00000000     832.29382324
2
Properties=species:S:1:pos:R:3:forces:R:3 energy=211.77736924562217 pbc="F F F"
Se       0.00000000       0.00000000       0.00000000       0.00000000       0.00000000    -712.41638184
Se       0.00000000       0.00000000       0.82666667       0.00000000       0.00000000     712.41638184
2
Properties=species:S:1:pos:R:3:forces:R:3 energy=174.33480392953965 pbc="F F F"
Se       0.00000000       0.00000000       0.00000000       0.00000000       0.00000000    -564.62792969
Se       0.00000000       0.00000000       0.88545455       0.00000000       0.00000000     564.62792969
2
Properties=species:S:1:pos:R:3:forces:R:3 energy=144.39318489913344 pbc="F F F"
Se       0.00000000       0.00000000       0.00000000       0.00000000       0.00000000    -462.65219116
Se       0.00000000       0.00000000       0.94424242       0.00000000       0.00000000     462.65219116
2
Properties=species:S:1:pos:R:3:forces:R:3 energy=119.28548189595871 pbc="F F F"
Se       0.00000000       0.00000000       0.00000000       0.00000000       0.00000000    -394.76473999
Se       0.00000000       0.00000000       1.00303030       0.00000000       0.00000000     394.76473999
2
Properties=species:S:1:pos:R:3:forces:R:3 energy=97.6915503553941 pbc="F F F"
Se       0.00000000       0.00000000       0.00000000       0.00000000       0.00000000    -341.86923218
Se       0.00000000       0.00000000       1.06181818       0.00000000       0.00000000     341.86923218
2
Properties=species:S:1:pos:R:3:forces:R:3 energy=78.90425995301668 pbc="F F F"
Se       0.00000000       0.00000000       0.00000000       0.00000000       0.00000000    -298.40725708
Se       0.00000000       0.00000000       1.12060606       0.00000000       0.00000000     298.40725708
2
Properties=species:S:1:pos:R:3:forces:R:3 energy=62.55306256724831 pbc="F F F"
Se       0.00000000       0.00000000       0.00000000       0.00000000       0.00000000    -257.72808838
Se       0.00000000       0.00000000       1.17939394       0.00000000       0.00000000     257.72808838
2
Properties=species:S:1:pos:R:3:forces:R:3 energy=48.62361890629081 pbc="F F F"
Se       0.00000000       0.00000000       0.00000000       0.00000000       0.00000000    -216.18823242
Se       0.00000000       0.00000000       1.23818182       0.00000000       0.00000000     216.18823242
2
Properties=species:S:1:pos:R:3:forces:R:3 energy=37.07535985162575 pbc="F F F"
Se       0.00000000       0.00000000       0.00000000       0.00000000       0.00000000    -177.72419739
Se       0.00000000       0.00000000       1.29696970       0.00000000       0.00000000     177.72419739
2
Properties=species:S:1:pos:R:3:forces:R:3 energy=27.582794657623488 pbc="F F F"
Se       0.00000000       0.00000000       0.00000000       0.00000000       0.00000000    -146.30282593
Se       0.00000000       0.00000000       1.35575758       0.00000000       0.00000000     146.30282593
2
Properties=species:S:1:pos:R:3:forces:R:3 energy=19.791728927093047 pbc="F F F"
Se       0.00000000       0.00000000       0.00000000       0.00000000       0.00000000    -119.13765717
Se       0.00000000       0.00000000       1.41454545       0.00000000       0.00000000     119.13765717
2
Properties=species:S:1:pos:R:3:forces:R:3 energy=13.537666532827924 pbc="F F F"
Se       0.00000000       0.00000000       0.00000000       0.00000000       0.00000000     -94.01876831
Se       0.00000000       0.00000000       1.47333333       0.00000000       0.00000000      94.01876831
2
Properties=species:S:1:pos:R:3:forces:R:3 energy=8.673783911721513 pbc="F F F"
Se       0.00000000       0.00000000       0.00000000       0.00000000       0.00000000     -72.13197327
Se       0.00000000       0.00000000       1.53212121       0.00000000       0.00000000      72.13197327
2
Properties=species:S:1:pos:R:3:forces:R:3 energy=4.969765272299632 pbc="F F F"
Se       0.00000000       0.00000000       0.00000000       0.00000000       0.00000000     -54.62480545
Se       0.00000000       0.00000000       1.59090909       0.00000000       0.00000000      54.62480545
2
Properties=species:S:1:pos:R:3:forces:R:3 energy=2.169881850098105 pbc="F F F"
Se       0.00000000       0.00000000       0.00000000       0.00000000       0.00000000     -41.25088882
Se       0.00000000       0.00000000       1.64969697       0.00000000       0.00000000      41.25088882
2
Properties=species:S:1:pos:R:3:forces:R:3 energy=0.055734598769353626 pbc="F F F"
Se       0.00000000       0.00000000       0.00000000       0.00000000       0.00000000     -31.14210701
Se       0.00000000       0.00000000       1.70848485       0.00000000       0.00000000      31.14210701
2
Properties=species:S:1:pos:R:3:forces:R:3 energy=-1.5390443084446364 pbc="F F F"
Se       0.00000000       0.00000000       0.00000000       0.00000000       0.00000000     -23.45717049
Se       0.00000000       0.00000000       1.76727273       0.00000000       0.00000000      23.45717049
2
Properties=species:S:1:pos:R:3:forces:R:3 energy=-2.736843006009158 pbc="F F F"
Se       0.00000000       0.00000000       0.00000000       0.00000000       0.00000000     -17.54302406
Se       0.00000000       0.00000000       1.82606061       0.00000000       0.00000000      17.54302406
2
Properties=species:S:1:pos:R:3:forces:R:3 energy=-3.626834668823665 pbc="F F F"
Se       0.00000000       0.00000000       0.00000000       0.00000000       0.00000000     -12.91743374
Se       0.00000000       0.00000000       1.88484848       0.00000000       0.00000000      12.91743374
2
Properties=species:S:1:pos:R:3:forces:R:3 energy=-4.27418037350851 pbc="F F F"
Se       0.00000000       0.00000000       0.00000000       0.00000000       0.00000000      -9.24281693
Se       0.00000000       0.00000000       1.94363636       0.00000000       0.00000000       9.24281693
2
Properties=species:S:1:pos:R:3:forces:R:3 energy=-4.727856718977784 pbc="F F F"
Se       0.00000000       0.00000000       0.00000000       0.00000000       0.00000000      -6.30003834
Se       0.00000000       0.00000000       2.00242424       0.00000000       0.00000000       6.30003834
2
Properties=species:S:1:pos:R:3:forces:R:3 energy=-5.026441729335136 pbc="F F F"
Se       0.00000000       0.00000000       0.00000000       0.00000000       0.00000000      -3.94697404
Se       0.00000000       0.00000000       2.06121212       0.00000000       0.00000000       3.94697404
2
Properties=species:S:1:pos:R:3:forces:R:3 energy=-5.201429977853064 pbc="F F F"
Se       0.00000000       0.00000000       0.00000000       0.00000000       0.00000000      -2.07950974
Se       0.00000000       0.00000000       2.12000000       0.00000000       0.00000000       2.07950974
2
Properties=species:S:1:pos:R:3:forces:R:3 energy=-5.278723170425993 pbc="F F F"
Se       0.00000000       0.00000000       0.00000000       0.00000000       0.00000000      -0.60942090
Se       0.00000000       0.00000000       2.17878788       0.00000000       0.00000000       0.60942090
2
Properties=species:S:1:pos:R:3:forces:R:3 energy=-5.279298487532386 pbc="F F F"
Se       0.00000000       0.00000000       0.00000000       0.00000000       0.00000000       0.54329979
Se       0.00000000       0.00000000       2.23757576       0.00000000       0.00000000      -0.54329979
2
Properties=species:S:1:pos:R:3:forces:R:3 energy=-5.219620427323606 pbc="F F F"
Se       0.00000000       0.00000000       0.00000000       0.00000000       0.00000000       1.45200837
Se       0.00000000       0.00000000       2.29636364       0.00000000       0.00000000      -1.45200837
2
Properties=species:S:1:pos:R:3:forces:R:3 energy=-5.112068637924606 pbc="F F F"
Se       0.00000000       0.00000000       0.00000000       0.00000000       0.00000000       2.18214846
Se       0.00000000       0.00000000       2.35515152       0.00000000       0.00000000      -2.18214846
2
Properties=species:S:1:pos:R:3:forces:R:3 energy=-4.96550938059355 pbc="F F F"
Se       0.00000000       0.00000000       0.00000000       0.00000000       0.00000000       2.78630471
Se       0.00000000       0.00000000       2.41393939       0.00000000       0.00000000      -2.78630471
2
Properties=species:S:1:pos:R:3:forces:R:3 energy=-4.786311218211352 pbc="F F F"
Se       0.00000000       0.00000000       0.00000000       0.00000000       0.00000000       3.29526782
Se       0.00000000       0.00000000       2.47272727       0.00000000       0.00000000      -3.29526782
2
Properties=species:S:1:pos:R:3:forces:R:3 energy=-4.579881516149955 pbc="F F F"
Se       0.00000000       0.00000000       0.00000000       0.00000000       0.00000000       3.71066475
Se       0.00000000       0.00000000       2.53151515       0.00000000       0.00000000      -3.71066475
2
Properties=species:S:1:pos:R:3:forces:R:3 energy=-4.352323765011484 pbc="F F F"
Se       0.00000000       0.00000000       0.00000000       0.00000000       0.00000000       4.00857115
Se       0.00000000       0.00000000       2.59030303       0.00000000       0.00000000      -4.00857115
2
Properties=species:S:1:pos:R:3:forces:R:3 energy=-4.111496089427361 pbc="F F F"
Se       0.00000000       0.00000000       0.00000000       0.00000000       0.00000000       4.15776539
Se       0.00000000       0.00000000       2.64909091       0.00000000       0.00000000      -4.15776539
2
Properties=species:S:1:pos:R:3:forces:R:3 energy=-3.8666835025395208 pbc="F F F"
Se       0.00000000       0.00000000       0.00000000       0.00000000       0.00000000       4.14425278
Se       0.00000000       0.00000000       2.70787879       0.00000000       0.00000000      -4.14425278
2
Properties=species:S:1:pos:R:3:forces:R:3 energy=-3.6271048448308574 pbc="F F F"
Se       0.00000000       0.00000000       0.00000000       0.00000000       0.00000000       3.98510146
Se       0.00000000       0.00000000       2.76666667       0.00000000       0.00000000      -3.98510146
2
Properties=species:S:1:pos:R:3:forces:R:3 energy=-3.4001657454763334 pbc="F F F"
Se       0.00000000       0.00000000       0.00000000       0.00000000       0.00000000       3.72231483
Se       0.00000000       0.00000000       2.82545455       0.00000000       0.00000000      -3.72231483
2
Properties=species:S:1:pos:R:3:forces:R:3 energy=-3.190531284112131 pbc="F F F"
Se       0.00000000       0.00000000       0.00000000       0.00000000       0.00000000       3.40390134
Se       0.00000000       0.00000000       2.88424242       0.00000000       0.00000000      -3.40390134
2
Properties=species:S:1:pos:R:3:forces:R:3 energy=-3.000289710707665 pbc="F F F"
Se       0.00000000       0.00000000       0.00000000       0.00000000       0.00000000       3.06760144
Se       0.00000000       0.00000000       2.94303030       0.00000000       0.00000000      -3.06760144
2
Properties=species:S:1:pos:R:3:forces:R:3 energy=-2.8297569435433023 pbc="F F F"
Se       0.00000000       0.00000000       0.00000000       0.00000000       0.00000000       2.73593998
Se       0.00000000       0.00000000       3.00181818       0.00000000       0.00000000      -2.73593998
2
Properties=species:S:1:pos:R:3:forces:R:3 energy=-2.6782939964762407 pbc="F F F"
Se       0.00000000       0.00000000       0.00000000       0.00000000       0.00000000       2.42022705
Se       0.00000000       0.00000000       3.06060606       0.00000000       0.00000000      -2.42022705
2
Properties=species:S:1:pos:R:3:forces:R:3 energy=-2.5447665811008497 pbc="F F F"
Se       0.00000000       0.00000000       0.00000000       0.00000000       0.00000000       2.12646794
Se       0.00000000       0.00000000       3.11939394       0.00000000       0.00000000      -2.12646794
2
Properties=species:S:1:pos:R:3:forces:R:3 energy=-2.427760953926393 pbc="F F F"
Se       0.00000000       0.00000000       0.00000000       0.00000000       0.00000000       1.85877001
Se       0.00000000       0.00000000       3.17818182       0.00000000       0.00000000      -1.85877001
2
Properties=species:S:1:pos:R:3:forces:R:3 energy=-2.325656222898842 pbc="F F F"
Se       0.00000000       0.00000000       0.00000000       0.00000000       0.00000000       1.61983049
Se       0.00000000       0.00000000       3.23696970       0.00000000       0.00000000      -1.61983049
2
Properties=species:S:1:pos:R:3:forces:R:3 energy=-2.236729299093014 pbc="F F F"
Se       0.00000000       0.00000000       0.00000000       0.00000000       0.00000000       1.41036248
Se       0.00000000       0.00000000       3.29575758       0.00000000       0.00000000      -1.41036248
2
Properties=species:S:1:pos:R:3:forces:R:3 energy=-2.159280787226063 pbc="F F F"
Se       0.00000000       0.00000000       0.00000000       0.00000000       0.00000000       1.22891331
Se       0.00000000       0.00000000       3.35454545       0.00000000       0.00000000      -1.22891331
2
Properties=species:S:1:pos:R:3:forces:R:3 energy=-2.0917486456273653 pbc="F F F"
Se       0.00000000       0.00000000       0.00000000       0.00000000       0.00000000       1.07243359
Se       0.00000000       0.00000000       3.41333333       0.00000000       0.00000000      -1.07243359
2
Properties=species:S:1:pos:R:3:forces:R:3 energy=-2.0327725385841076 pbc="F F F"
Se       0.00000000       0.00000000       0.00000000       0.00000000       0.00000000       0.93719071
Se       0.00000000       0.00000000       3.47212121       0.00000000       0.00000000      -0.93719071
2
Properties=species:S:1:pos:R:3:forces:R:3 energy=-1.9812131542458031 pbc="F F F"
Se       0.00000000       0.00000000       0.00000000       0.00000000       0.00000000       0.81957704
Se       0.00000000       0.00000000       3.53090909       0.00000000       0.00000000      -0.81957704
2
Properties=species:S:1:pos:R:3:forces:R:3 energy=-1.9361240830713309 pbc="F F F"
Se       0.00000000       0.00000000       0.00000000       0.00000000       0.00000000       0.71658385
Se       0.00000000       0.00000000       3.58969697       0.00000000       0.00000000      -0.71658385
2
Properties=species:S:1:pos:R:3:forces:R:3 energy=-1.8967178990342575 pbc="F F F"
Se       0.00000000       0.00000000       0.00000000       0.00000000       0.00000000       0.62594920
Se       0.00000000       0.00000000       3.64848485       0.00000000       0.00000000      -0.62594920
2
Properties=species:S:1:pos:R:3:forces:R:3 energy=-1.8623177701547482 pbc="F F F"
Se       0.00000000       0.00000000       0.00000000       0.00000000       0.00000000       0.54605705
Se       0.00000000       0.00000000       3.70727273       0.00000000       0.00000000      -0.54605705
2
Properties=species:S:1:pos:R:3:forces:R:3 energy=-1.8323267710269961 pbc="F F F"
Se       0.00000000       0.00000000       0.00000000       0.00000000       0.00000000       0.47576693
Se       0.00000000       0.00000000       3.76606061       0.00000000       0.00000000      -0.47576693
2
Properties=species:S:1:pos:R:3:forces:R:3 energy=-1.8062078461551132 pbc="F F F"
Se       0.00000000       0.00000000       0.00000000       0.00000000       0.00000000       0.41421735
Se       0.00000000       0.00000000       3.82484848       0.00000000       0.00000000      -0.41421735
2
Properties=species:S:1:pos:R:3:forces:R:3 energy=-1.7834681792809974 pbc="F F F"
Se       0.00000000       0.00000000       0.00000000       0.00000000       0.00000000       0.36066484
Se       0.00000000       0.00000000       3.88363636       0.00000000       0.00000000      -0.36066484
2
Properties=species:S:1:pos:R:3:forces:R:3 energy=-1.7636594563934977 pbc="F F F"
Se       0.00000000       0.00000000       0.00000000       0.00000000       0.00000000       0.31440401
Se       0.00000000       0.00000000       3.94242424       0.00000000       0.00000000      -0.31440401
2
Properties=species:S:1:pos:R:3:forces:R:3 energy=-1.7463730209131403 pbc="F F F"
Se       0.00000000       0.00000000       0.00000000       0.00000000       0.00000000       0.27472922
Se       0.00000000       0.00000000       4.00121212       0.00000000       0.00000000      -0.27472922
2
Properties=species:S:1:pos:R:3:forces:R:3 energy=-1.7312429355357506 pbc="F F F"
Se       0.00000000       0.00000000       0.00000000       0.00000000       0.00000000       0.24093491
Se       0.00000000       0.00000000       4.06000000       0.00000000       0.00000000      -0.24093491
2
Properties=species:S:1:pos:R:3:forces:R:3 energy=-1.7179427513263055 pbc="F F F"
Se       0.00000000       0.00000000       0.00000000       0.00000000       0.00000000       0.21235301
Se       0.00000000       0.00000000       4.11878788       0.00000000       0.00000000      -0.21235301
2
Properties=species:S:1:pos:R:3:forces:R:3 energy=-1.7061851263323995 pbc="F F F"
Se       0.00000000       0.00000000       0.00000000       0.00000000       0.00000000       0.18836938
Se       0.00000000       0.00000000       4.17757576       0.00000000       0.00000000      -0.18836938
2
Properties=species:S:1:pos:R:3:forces:R:3 energy=-1.6957156417883044 pbc="F F F"
Se       0.00000000       0.00000000       0.00000000       0.00000000       0.00000000       0.16844189
Se       0.00000000       0.00000000       4.23636364       0.00000000       0.00000000      -0.16844189
2
Properties=species:S:1:pos:R:3:forces:R:3 energy=-1.6863098202988205 pbc="F F F"
Se       0.00000000       0.00000000       0.00000000       0.00000000       0.00000000       0.15209651
Se       0.00000000       0.00000000       4.29515152       0.00000000       0.00000000      -0.15209651
2
Properties=species:S:1:pos:R:3:forces:R:3 energy=-1.6777710200858003 pbc="F F F"
Se       0.00000000       0.00000000       0.00000000       0.00000000       0.00000000       0.13890204
Se       0.00000000       0.00000000       4.35393939       0.00000000       0.00000000      -0.13890204
2
Properties=species:S:1:pos:R:3:forces:R:3 energy=-1.6699249359376769 pbc="F F F"
Se       0.00000000       0.00000000       0.00000000       0.00000000       0.00000000       0.12845254
Se       0.00000000       0.00000000       4.41272727       0.00000000       0.00000000      -0.12845254
2
Properties=species:S:1:pos:R:3:forces:R:3 energy=-1.6626224396415699 pbc="F F F"
Se       0.00000000       0.00000000       0.00000000       0.00000000       0.00000000       0.12033795
Se       0.00000000       0.00000000       4.47151515       0.00000000       0.00000000      -0.12033795
2
Properties=species:S:1:pos:R:3:forces:R:3 energy=-1.6557386801619451 pbc="F F F"
Se       0.00000000       0.00000000       0.00000000       0.00000000       0.00000000       0.11411967
Se       0.00000000       0.00000000       4.53030303       0.00000000       0.00000000      -0.11411967
2
Properties=species:S:1:pos:R:3:forces:R:3 energy=-1.6491767399467734 pbc="F F F"
Se       0.00000000       0.00000000       0.00000000       0.00000000       0.00000000       0.10932702
Se       0.00000000       0.00000000       4.58909091       0.00000000       0.00000000      -0.10932702
2
Properties=species:S:1:pos:R:3:forces:R:3 energy=-1.6428666570785881 pbc="F F F"
Se       0.00000000       0.00000000       0.00000000       0.00000000       0.00000000       0.10545965
Se       0.00000000       0.00000000       4.64787879       0.00000000       0.00000000      -0.10545965
2
Properties=species:S:1:pos:R:3:forces:R:3 energy=-1.6367686827311252 pbc="F F F"
Se       0.00000000       0.00000000       0.00000000       0.00000000       0.00000000       0.10201672
Se       0.00000000       0.00000000       4.70666667       0.00000000       0.00000000      -0.10201672
2
Properties=species:S:1:pos:R:3:forces:R:3 energy=-1.6308722633466077 pbc="F F F"
Se       0.00000000       0.00000000       0.00000000       0.00000000       0.00000000       0.09855314
Se       0.00000000       0.00000000       4.76545455       0.00000000       0.00000000      -0.09855314
2
Properties=species:S:1:pos:R:3:forces:R:3 energy=-1.6251881652790776 pbc="F F F"
Se       0.00000000       0.00000000       0.00000000       0.00000000       0.00000000       0.09474283
Se       0.00000000       0.00000000       4.82424242       0.00000000       0.00000000      -0.09474283
2
Properties=species:S:1:pos:R:3:forces:R:3 energy=-1.6197424085838708 pbc="F F F"
Se       0.00000000       0.00000000       0.00000000       0.00000000       0.00000000       0.09047484
Se       0.00000000       0.00000000       4.88303030       0.00000000       0.00000000      -0.09047484
2
Properties=species:S:1:pos:R:3:forces:R:3 energy=-1.6145562636156412 pbc="F F F"
Se       0.00000000       0.00000000       0.00000000       0.00000000       0.00000000       0.08593351
Se       0.00000000       0.00000000       4.94181818       0.00000000       0.00000000      -0.08593351
2
Properties=species:S:1:pos:R:3:forces:R:3 energy=-1.6096330837375725 pbc="F F F"
Se       0.00000000       0.00000000       0.00000000       0.00000000       0.00000000       0.08165629
Se       0.00000000       0.00000000       5.00060606       0.00000000       0.00000000      -0.08165629
2
Properties=species:S:1:pos:R:3:forces:R:3 energy=-1.6049333331431062 pbc="F F F"
Se       0.00000000       0.00000000       0.00000000       0.00000000       0.00000000       0.07849825
Se       0.00000000       0.00000000       5.05939394       0.00000000       0.00000000      -0.07849825
2
Properties=species:S:1:pos:R:3:forces:R:3 energy=-1.6003621827541823 pbc="F F F"
Se       0.00000000       0.00000000       0.00000000       0.00000000       0.00000000       0.07743672
Se       0.00000000       0.00000000       5.11818182       0.00000000       0.00000000      -0.07743672
2
Properties=species:S:1:pos:R:3:forces:R:3 energy=-1.5957736354050391 pbc="F F F"
Se       0.00000000       0.00000000       0.00000000       0.00000000       0.00000000       0.07916689
Se       0.00000000       0.00000000       5.17696970       0.00000000       0.00000000      -0.07916689
2
Properties=species:S:1:pos:R:3:forces:R:3 energy=-1.5910013095573607 pbc="F F F"
Se       0.00000000       0.00000000       0.00000000       0.00000000       0.00000000       0.08357822
Se       0.00000000       0.00000000       5.23575758       0.00000000       0.00000000      -0.08357822
2
Properties=species:S:1:pos:R:3:forces:R:3 energy=-1.585919742177461 pbc="F F F"
Se       0.00000000       0.00000000       0.00000000       0.00000000       0.00000000       0.08935972
Se       0.00000000       0.00000000       5.29454545       0.00000000       0.00000000      -0.08935972
2
Properties=species:S:1:pos:R:3:forces:R:3 energy=-1.5805120144575469 pbc="F F F"
Se       0.00000000       0.00000000       0.00000000       0.00000000       0.00000000       0.09425013
Se       0.00000000       0.00000000       5.35333333       0.00000000       0.00000000      -0.09425013
2
Properties=species:S:1:pos:R:3:forces:R:3 energy=-1.574894194075832 pbc="F F F"
Se       0.00000000       0.00000000       0.00000000       0.00000000       0.00000000       0.09632108
Se       0.00000000       0.00000000       5.41212121       0.00000000       0.00000000      -0.09632108
2
Properties=species:S:1:pos:R:3:forces:R:3 energy=-1.5692432599057575 pbc="F F F"
Se       0.00000000       0.00000000       0.00000000       0.00000000       0.00000000       0.09554271
Se       0.00000000       0.00000000       5.47090909       0.00000000       0.00000000      -0.09554271
2
Properties=species:S:1:pos:R:3:forces:R:3 energy=-1.5637094784364378 pbc="F F F"
Se       0.00000000       0.00000000       0.00000000       0.00000000       0.00000000       0.09214474
Se       0.00000000       0.00000000       5.52969697       0.00000000       0.00000000      -0.09214474
2
Properties=species:S:1:pos:R:3:forces:R:3 energy=-1.5584993956129447 pbc="F F F"
Se       0.00000000       0.00000000       0.00000000       0.00000000       0.00000000       0.08421474
Se       0.00000000       0.00000000       5.58848485       0.00000000       0.00000000      -0.08421474
2
Properties=species:S:1:pos:R:3:forces:R:3 energy=-1.5539081595808186 pbc="F F F"
Se       0.00000000       0.00000000       0.00000000       0.00000000       0.00000000       0.07127160
Se       0.00000000       0.00000000       5.64727273       0.00000000       0.00000000      -0.07127160
2
Properties=species:S:1:pos:R:3:forces:R:3 energy=-1.5501674036929356 pbc="F F F"
Se       0.00000000       0.00000000       0.00000000       0.00000000       0.00000000       0.05609370
Se       0.00000000       0.00000000       5.70606061       0.00000000       0.00000000      -0.05609370
2
Properties=species:S:1:pos:R:3:forces:R:3 energy=-1.5472515480450533 pbc="F F F"
Se       0.00000000       0.00000000       0.00000000       0.00000000       0.00000000       0.04359179
Se       0.00000000       0.00000000       5.76484848       0.00000000       0.00000000      -0.04359179
2
Properties=species:S:1:pos:R:3:forces:R:3 energy=-1.5450064365946583 pbc="F F F"
Se       0.00000000       0.00000000       0.00000000       0.00000000       0.00000000       0.03267981
Se       0.00000000       0.00000000       5.82363636       0.00000000       0.00000000      -0.03267981
2
Properties=species:S:1:pos:R:3:forces:R:3 energy=-1.5434642746407161 pbc="F F F"
Se       0.00000000       0.00000000       0.00000000       0.00000000       0.00000000       0.01964335
Se       0.00000000       0.00000000       5.88242424       0.00000000       0.00000000      -0.01964335
2
Properties=species:S:1:pos:R:3:forces:R:3 energy=-1.5426662592600395 pbc="F F F"
Se       0.00000000       0.00000000       0.00000000       0.00000000       0.00000000       0.00817992
Se       0.00000000       0.00000000       5.94121212       0.00000000       0.00000000      -0.00817992
2
Properties=species:S:1:pos:R:3:forces:R:3 energy=-1.5423645552914582 pbc="F F F"
Se       0.00000000       0.00000000       0.00000000       0.00000000       0.00000000       0.00354915
Se       0.00000000       0.00000000       6.00000000       0.00000000       0.00000000      -0.00354915
