2
Properties=species:S:1:pos:R:3:forces:R:3 energy=9225.277911199648 pbc="F F F"
Te       0.00000000       0.00000000       0.00000000       0.00000000       0.00000000 -153080.21875000
Te       0.00000000       0.00000000       0.18000000       0.00000000       0.00000000  153080.21875000
2
Properties=species:S:1:pos:R:3:forces:R:3 energy=3808.9292783871483 pbc="F F F"
Te       0.00000000       0.00000000       0.00000000       0.00000000       0.00000000  -52044.68750000
Te       0.00000000       0.00000000       0.23878788       0.00000000       0.00000000   52044.68750000
2
Properties=species:S:1:pos:R:3:forces:R:3 energy=1839.6951475277733 pbc="F F F"
Te       0.00000000       0.00000000       0.00000000       0.00000000       0.00000000  -20317.15039062
Te       0.00000000       0.00000000       0.29757576       0.00000000       0.00000000   20317.15039062
2
Properties=species:S:1:pos:R:3:forces:R:3 energy=1053.647051827816 pbc="F F F"
Te       0.00000000       0.00000000       0.00000000       0.00000000       0.00000000   -8211.94726562
Te       0.00000000       0.00000000       0.35636364       0.00000000       0.00000000    8211.94726562
2
Properties=species:S:1:pos:R:3:forces:R:3 energy=727.4193907013392 pbc="F F F"
Te       0.00000000       0.00000000       0.00000000       0.00000000       0.00000000   -3476.36230469
Te       0.00000000       0.00000000       0.41515152       0.00000000       0.00000000    3476.36230469
2
Properties=species:S:1:pos:R:3:forces:R:3 energy=583.50575546644 pbc="F F F"
Te       0.00000000       0.00000000       0.00000000       0.00000000       0.00000000   -1769.60791016
Te       0.00000000       0.00000000       0.47393939       0.00000000       0.00000000    1769.60791016
2
Properties=species:S:1:pos:R:3:forces:R:3 energy=486.99907214534096 pbc="F F F"
Te       0.00000000       0.00000000       0.00000000       0.00000000       0.00000000   -1454.74499512
Te       0.00000000       0.00000000       0.53272727       0.00000000       0.00000000    1454.74499512
2
Properties=species:S:1:pos:R:3:forces:R:3 energy=414.15809929880334 pbc="F F F"
Te       0.00000000       0.00000000       0.00000000       0.00000000       0.00000000    -992.35394287
Te       0.00000000       0.00000000       0.59151515       0.00000000       0.00000000     992.35394287
2
Properties=species:S:1:pos:R:3:forces:R:3 energy=368.3481018257408 pbc="F F F"
Te       0.00000000       0.00000000       0.00000000       0.00000000       0.00000000    -874.12683105
Te       0.00000000       0.00000000       0.65030303       0.00000000       0.00000000     874.12683105
2
Properties=species:S:1:pos:R:3:forces:R:3 energy=305.8628724697696 pbc="F F F"
Te       0.00000000       0.00000000       0.00000000       0.00000000       0.00000000   -1036.87805176
Te       0.00000000       0.00000000       0.70909091       0.00000000       0.00000000    1036.87805176
2
Properties=species:S:1:pos:R:3:forces:R:3 energy=262.27672155579904 pbc="F F F"
Te       0.00000000       0.00000000       0.00000000       0.00000000       0.00000000    -574.57513428
Te       0.00000000       0.00000000       0.76787879       0.00000000       0.00000000     574.57513428
2
Properties=species:S:1:pos:R:3:forces:R:3 energy=225.60533514115994 pbc="F F F"
Te       0.00000000       0.00000000       0.00000000       0.00000000       0.00000000    -634.56390381
Te       0.00000000       0.00000000       0.82666667       0.00000000       0.00000000     634.56390381
2
Properties=species:S:1:pos:R:3:forces:R:3 energy=192.00220142304596 pbc="F F F"
Te       0.00000000       0.00000000       0.00000000       0.00000000       0.00000000    -507.93130493
Te       0.00000000       0.00000000       0.88545455       0.00000000       0.00000000     507.93130493
2
Properties=species:S:1:pos:R:3:forces:R:3 energy=166.11174488745095 pbc="F F F"
Te       0.00000000       0.00000000       0.00000000       0.00000000       0.00000000    -374.80911255
Te       0.00000000       0.00000000       0.94424242       0.00000000       0.00000000     374.80911255
2
Properties=species:S:1:pos:R:3:forces:R:3 energy=146.97771253013448 pbc="F F F"
Te       0.00000000       0.00000000       0.00000000       0.00000000       0.00000000    -284.56680298
Te       0.00000000       0.00000000       1.00303030       0.00000000       0.00000000     284.56680298
2
Properties=species:S:1:pos:R:3:forces:R:3 energy=132.03110417348014 pbc="F F F"
Te       0.00000000       0.00000000       0.00000000       0.00000000       0.00000000    -227.14837646
Te       0.00000000       0.00000000       1.06181818       0.00000000       0.00000000     227.14837646
2
Properties=species:S:1:pos:R:3:forces:R:3 energy=119.901924779496 pbc="F F F"
Te       0.00000000       0.00000000       0.00000000       0.00000000       0.00000000    -190.28182983
Te       0.00000000       0.00000000       1.12060606       0.00000000       0.00000000     190.28182983
2
Properties=species:S:1:pos:R:3:forces:R:3 energy=108.88604999253313 pbc="F F F"
Te       0.00000000       0.00000000       0.00000000       0.00000000       0.00000000    -191.42842102
Te       0.00000000       0.00000000       1.17939394       0.00000000       0.00000000     191.42842102
2
Properties=species:S:1:pos:R:3:forces:R:3 energy=96.82475800280501 pbc="F F F"
Te       0.00000000       0.00000000       0.00000000       0.00000000       0.00000000    -220.11347961
Te       0.00000000       0.00000000       1.23818182       0.00000000       0.00000000     220.11347961
2
Properties=species:S:1:pos:R:3:forces:R:3 energy=83.34427727587969 pbc="F F F"
Te       0.00000000       0.00000000       0.00000000       0.00000000       0.00000000    -233.17291260
Te       0.00000000       0.00000000       1.29696970       0.00000000       0.00000000     233.17291260
2
Properties=species:S:1:pos:R:3:forces:R:3 energy=69.97469066644936 pbc="F F F"
Te       0.00000000       0.00000000       0.00000000       0.00000000       0.00000000    -218.38061523
Te       0.00000000       0.00000000       1.35575758       0.00000000       0.00000000     218.38061523
2
Properties=species:S:1:pos:R:3:forces:R:3 energy=57.81627149690757 pbc="F F F"
Te       0.00000000       0.00000000       0.00000000       0.00000000       0.00000000    -195.68049622
Te       0.00000000       0.00000000       1.41454545       0.00000000       0.00000000     195.68049622
2
Properties=species:S:1:pos:R:3:forces:R:3 energy=46.930325957079496 pbc="F F F"
Te       0.00000000       0.00000000       0.00000000       0.00000000       0.00000000    -174.39906311
Te       0.00000000       0.00000000       1.47333333       0.00000000       0.00000000     174.39906311
2
Properties=species:S:1:pos:R:3:forces:R:3 energy=37.3196809974004 pbc="F F F"
Te       0.00000000       0.00000000       0.00000000       0.00000000       0.00000000    -152.72639465
Te       0.00000000       0.00000000       1.53212121       0.00000000       0.00000000     152.72639465
2
Properties=species:S:1:pos:R:3:forces:R:3 energy=28.97707750873519 pbc="F F F"
Te       0.00000000       0.00000000       0.00000000       0.00000000       0.00000000    -130.86930847
Te       0.00000000       0.00000000       1.59090909       0.00000000       0.00000000     130.86930847
2
Properties=species:S:1:pos:R:3:forces:R:3 energy=21.94943850742103 pbc="F F F"
Te       0.00000000       0.00000000       0.00000000       0.00000000       0.00000000    -108.27871704
Te       0.00000000       0.00000000       1.64969697       0.00000000       0.00000000     108.27871704
2
Properties=species:S:1:pos:R:3:forces:R:3 energy=16.212459039472108 pbc="F F F"
Te       0.00000000       0.00000000       0.00000000       0.00000000       0.00000000     -87.35645294
Te       0.00000000       0.00000000       1.70848485       0.00000000       0.00000000      87.35645294
2
Properties=species:S:1:pos:R:3:forces:R:3 energy=11.614499435798818 pbc="F F F"
Te       0.00000000       0.00000000       0.00000000       0.00000000       0.00000000     -69.64562988
Te       0.00000000       0.00000000       1.76727273       0.00000000       0.00000000      69.64562988
2
Properties=species:S:1:pos:R:3:forces:R:3 energy=7.958322314003429 pbc="F F F"
Te       0.00000000       0.00000000       0.00000000       0.00000000       0.00000000     -55.25821686
Te       0.00000000       0.00000000       1.82606061       0.00000000       0.00000000      55.25821686
2
Properties=species:S:1:pos:R:3:forces:R:3 energy=5.06208486846703 pbc="F F F"
Te       0.00000000       0.00000000       0.00000000       0.00000000       0.00000000     -43.69891739
Te       0.00000000       0.00000000       1.88484848       0.00000000       0.00000000      43.69891739
2
Properties=species:S:1:pos:R:3:forces:R:3 energy=2.7753374650954092 pbc="F F F"
Te       0.00000000       0.00000000       0.00000000       0.00000000       0.00000000     -34.44162750
Te       0.00000000       0.00000000       1.94363636       0.00000000       0.00000000      34.44162750
2
Properties=species:S:1:pos:R:3:forces:R:3 energy=0.9762998734435386 pbc="F F F"
Te       0.00000000       0.00000000       0.00000000       0.00000000       0.00000000     -27.03793335
Te       0.00000000       0.00000000       2.00242424       0.00000000       0.00000000      27.03793335
2
Properties=species:S:1:pos:R:3:forces:R:3 energy=-0.43240224368570646 pbc="F F F"
Te       0.00000000       0.00000000       0.00000000       0.00000000       0.00000000     -21.10290337
Te       0.00000000       0.00000000       2.06121212       0.00000000       0.00000000      21.10290337
2
Properties=species:S:1:pos:R:3:forces:R:3 energy=-1.5273947781190025 pbc="F F F"
Te       0.00000000       0.00000000       0.00000000       0.00000000       0.00000000     -16.31911278
Te       0.00000000       0.00000000       2.12000000       0.00000000       0.00000000      16.31911278
2
Properties=species:S:1:pos:R:3:forces:R:3 energy=-2.368867734752924 pbc="F F F"
Te       0.00000000       0.00000000       0.00000000       0.00000000       0.00000000     -12.44301796
Te       0.00000000       0.00000000       2.17878788       0.00000000       0.00000000      12.44301796
2
Properties=species:S:1:pos:R:3:forces:R:3 energy=-3.0047029490712234 pbc="F F F"
Te       0.00000000       0.00000000       0.00000000       0.00000000       0.00000000      -9.29842091
Te       0.00000000       0.00000000       2.23757576       0.00000000       0.00000000       9.29842091
2
Properties=species:S:1:pos:R:3:forces:R:3 energy=-3.473890074854367 pbc="F F F"
Te       0.00000000       0.00000000       0.00000000       0.00000000       0.00000000      -6.75421667
Te       0.00000000       0.00000000       2.29636364       0.00000000       0.00000000       6.75421667
2
Properties=species:S:1:pos:R:3:forces:R:3 energy=-3.8084703800086523 pbc="F F F"
Te       0.00000000       0.00000000       0.00000000       0.00000000       0.00000000      -4.70201015
Te       0.00000000       0.00000000       2.35515152       0.00000000       0.00000000       4.70201015
2
Properties=species:S:1:pos:R:3:forces:R:3 energy=-4.03447095009071 pbc="F F F"
Te       0.00000000       0.00000000       0.00000000       0.00000000       0.00000000      -3.04508567
Te       0.00000000       0.00000000       2.41393939       0.00000000       0.00000000       3.04508567
2
Properties=species:S:1:pos:R:3:forces:R:3 energy=-4.1725728243611835 pbc="F F F"
Te       0.00000000       0.00000000       0.00000000       0.00000000       0.00000000      -1.69873774
Te       0.00000000       0.00000000       2.47272727       0.00000000       0.00000000       1.69873774
2
Properties=species:S:1:pos:R:3:forces:R:3 energy=-4.2389293972358475 pbc="F F F"
Te       0.00000000       0.00000000       0.00000000       0.00000000       0.00000000      -0.59428680
Te       0.00000000       0.00000000       2.53151515       0.00000000       0.00000000       0.59428680
2
Properties=species:S:1:pos:R:3:forces:R:3 energy=-4.246193077197615 pbc="F F F"
Te       0.00000000       0.00000000       0.00000000       0.00000000       0.00000000       0.31839076
Te       0.00000000       0.00000000       2.59030303       0.00000000       0.00000000      -0.31839076
2
Properties=species:S:1:pos:R:3:forces:R:3 energy=-4.204619454753434 pbc="F F F"
Te       0.00000000       0.00000000       0.00000000       0.00000000       0.00000000       1.07101834
Te       0.00000000       0.00000000       2.64909091       0.00000000       0.00000000      -1.07101834
2
Properties=species:S:1:pos:R:3:forces:R:3 energy=-4.123098121336171 pbc="F F F"
Te       0.00000000       0.00000000       0.00000000       0.00000000       0.00000000       1.67879021
Te       0.00000000       0.00000000       2.70787879       0.00000000       0.00000000      -1.67879021
2
Properties=species:S:1:pos:R:3:forces:R:3 energy=-4.010006272838081 pbc="F F F"
Te       0.00000000       0.00000000       0.00000000       0.00000000       0.00000000       2.14492559
Te       0.00000000       0.00000000       2.76666667       0.00000000       0.00000000      -2.14492559
2
Properties=species:S:1:pos:R:3:forces:R:3 energy=-3.8737080373109953 pbc="F F F"
Te       0.00000000       0.00000000       0.00000000       0.00000000       0.00000000       2.46827722
Te       0.00000000       0.00000000       2.82545455       0.00000000       0.00000000      -2.46827722
2
Properties=species:S:1:pos:R:3:forces:R:3 energy=-3.722524551434775 pbc="F F F"
Te       0.00000000       0.00000000       0.00000000       0.00000000       0.00000000       2.65288758
Te       0.00000000       0.00000000       2.88424242       0.00000000       0.00000000      -2.65288758
2
Properties=species:S:1:pos:R:3:forces:R:3 energy=-3.564199524265453 pbc="F F F"
Te       0.00000000       0.00000000       0.00000000       0.00000000       0.00000000       2.71517205
Te       0.00000000       0.00000000       2.94303030       0.00000000       0.00000000      -2.71517205
2
Properties=species:S:1:pos:R:3:forces:R:3 energy=-3.405112650825185 pbc="F F F"
Te       0.00000000       0.00000000       0.00000000       0.00000000       0.00000000       2.68448114
Te       0.00000000       0.00000000       3.00181818       0.00000000       0.00000000      -2.68448114
2
Properties=species:S:1:pos:R:3:forces:R:3 energy=-3.2496933351526627 pbc="F F F"
Te       0.00000000       0.00000000       0.00000000       0.00000000       0.00000000       2.59626222
Te       0.00000000       0.00000000       3.06060606       0.00000000       0.00000000      -2.59626222
2
Properties=species:S:1:pos:R:3:forces:R:3 energy=-3.100357930859847 pbc="F F F"
Te       0.00000000       0.00000000       0.00000000       0.00000000       0.00000000       2.48198533
Te       0.00000000       0.00000000       3.11939394       0.00000000       0.00000000      -2.48198533
2
Properties=species:S:1:pos:R:3:forces:R:3 energy=-2.9579805654767033 pbc="F F F"
Te       0.00000000       0.00000000       0.00000000       0.00000000       0.00000000       2.36167932
Te       0.00000000       0.00000000       3.17818182       0.00000000       0.00000000      -2.36167932
2
Properties=species:S:1:pos:R:3:forces:R:3 energy=-2.822650319172496 pbc="F F F"
Te       0.00000000       0.00000000       0.00000000       0.00000000       0.00000000       2.24264884
Te       0.00000000       0.00000000       3.23696970       0.00000000       0.00000000      -2.24264884
2
Properties=species:S:1:pos:R:3:forces:R:3 energy=-2.6943001516246188 pbc="F F F"
Te       0.00000000       0.00000000       0.00000000       0.00000000       0.00000000       2.12356615
Te       0.00000000       0.00000000       3.29575758       0.00000000       0.00000000      -2.12356615
2
Properties=species:S:1:pos:R:3:forces:R:3 energy=-2.5730529067335755 pbc="F F F"
Te       0.00000000       0.00000000       0.00000000       0.00000000       0.00000000       2.00037551
Te       0.00000000       0.00000000       3.35454545       0.00000000       0.00000000      -2.00037551
2
Properties=species:S:1:pos:R:3:forces:R:3 energy=-2.4592336500406216 pbc="F F F"
Te       0.00000000       0.00000000       0.00000000       0.00000000       0.00000000       1.87070107
Te       0.00000000       0.00000000       3.41333333       0.00000000       0.00000000      -1.87070107
2
Properties=species:S:1:pos:R:3:forces:R:3 energy=-2.3532168280834367 pbc="F F F"
Te       0.00000000       0.00000000       0.00000000       0.00000000       0.00000000       1.73529148
Te       0.00000000       0.00000000       3.47212121       0.00000000       0.00000000      -1.73529148
2
Properties=species:S:1:pos:R:3:forces:R:3 energy=-2.255259672493966 pbc="F F F"
Te       0.00000000       0.00000000       0.00000000       0.00000000       0.00000000       1.59717548
Te       0.00000000       0.00000000       3.53090909       0.00000000       0.00000000      -1.59717548
2
Properties=species:S:1:pos:R:3:forces:R:3 energy=-2.1654092357595043 pbc="F F F"
Te       0.00000000       0.00000000       0.00000000       0.00000000       0.00000000       1.46002293
Te       0.00000000       0.00000000       3.58969697       0.00000000       0.00000000      -1.46002293
2
Properties=species:S:1:pos:R:3:forces:R:3 energy=-2.0835157253200287 pbc="F F F"
Te       0.00000000       0.00000000       0.00000000       0.00000000       0.00000000       1.32690930
Te       0.00000000       0.00000000       3.64848485       0.00000000       0.00000000      -1.32690930
2
Properties=species:S:1:pos:R:3:forces:R:3 energy=-2.0092781927403522 pbc="F F F"
Te       0.00000000       0.00000000       0.00000000       0.00000000       0.00000000       1.19984078
Te       0.00000000       0.00000000       3.70727273       0.00000000       0.00000000      -1.19984078
2
Properties=species:S:1:pos:R:3:forces:R:3 energy=-1.942303989467258 pbc="F F F"
Te       0.00000000       0.00000000       0.00000000       0.00000000       0.00000000       1.07987440
Te       0.00000000       0.00000000       3.76606061       0.00000000       0.00000000      -1.07987440
2
Properties=species:S:1:pos:R:3:forces:R:3 energy=-1.8821622644580602 pbc="F F F"
Te       0.00000000       0.00000000       0.00000000       0.00000000       0.00000000       0.96749252
Te       0.00000000       0.00000000       3.82484848       0.00000000       0.00000000      -0.96749252
2
Properties=species:S:1:pos:R:3:forces:R:3 energy=-1.8283969750002282 pbc="F F F"
Te       0.00000000       0.00000000       0.00000000       0.00000000       0.00000000       0.86289948
Te       0.00000000       0.00000000       3.88363636       0.00000000       0.00000000      -0.86289948
2
Properties=species:S:1:pos:R:3:forces:R:3 energy=-1.7805498655938703 pbc="F F F"
Te       0.00000000       0.00000000       0.00000000       0.00000000       0.00000000       0.76625377
Te       0.00000000       0.00000000       3.94242424       0.00000000       0.00000000      -0.76625377
2
Properties=species:S:1:pos:R:3:forces:R:3 energy=-1.7381467557156134 pbc="F F F"
Te       0.00000000       0.00000000       0.00000000       0.00000000       0.00000000       0.67770588
Te       0.00000000       0.00000000       4.00121212       0.00000000       0.00000000      -0.67770588
2
Properties=species:S:1:pos:R:3:forces:R:3 energy=-1.7007063961520734 pbc="F F F"
Te       0.00000000       0.00000000       0.00000000       0.00000000       0.00000000       0.59741509
Te       0.00000000       0.00000000       4.06000000       0.00000000       0.00000000      -0.59741509
2
Properties=species:S:1:pos:R:3:forces:R:3 energy=-1.6677407601034586 pbc="F F F"
Te       0.00000000       0.00000000       0.00000000       0.00000000       0.00000000       0.52550358
Te       0.00000000       0.00000000       4.11878788       0.00000000       0.00000000      -0.52550358
2
Properties=species:S:1:pos:R:3:forces:R:3 energy=-1.6387550621905032 pbc="F F F"
Te       0.00000000       0.00000000       0.00000000       0.00000000       0.00000000       0.46200284
Te       0.00000000       0.00000000       4.17757576       0.00000000       0.00000000      -0.46200284
2
Properties=species:S:1:pos:R:3:forces:R:3 energy=-1.613256895220121 pbc="F F F"
Te       0.00000000       0.00000000       0.00000000       0.00000000       0.00000000       0.40682229
Te       0.00000000       0.00000000       4.23636364       0.00000000       0.00000000      -0.40682229
2
Properties=species:S:1:pos:R:3:forces:R:3 energy=-1.5907640009639834 pbc="F F F"
Te       0.00000000       0.00000000       0.00000000       0.00000000       0.00000000       0.35970318
Te       0.00000000       0.00000000       4.29515152       0.00000000       0.00000000      -0.35970318
2
Properties=species:S:1:pos:R:3:forces:R:3 energy=-1.570815042176136 pbc="F F F"
Te       0.00000000       0.00000000       0.00000000       0.00000000       0.00000000       0.32021636
Te       0.00000000       0.00000000       4.35393939       0.00000000       0.00000000      -0.32021636
2
Properties=species:S:1:pos:R:3:forces:R:3 energy=-1.55297750608407 pbc="F F F"
Te       0.00000000       0.00000000       0.00000000       0.00000000       0.00000000       0.28773054
Te       0.00000000       0.00000000       4.41272727       0.00000000       0.00000000      -0.28773054
2
Properties=species:S:1:pos:R:3:forces:R:3 energy=-1.5368629536743195 pbc="F F F"
Te       0.00000000       0.00000000       0.00000000       0.00000000       0.00000000       0.26144090
Te       0.00000000       0.00000000       4.47151515       0.00000000       0.00000000      -0.26144090
2
Properties=species:S:1:pos:R:3:forces:R:3 energy=-1.5221353346643771 pbc="F F F"
Te       0.00000000       0.00000000       0.00000000       0.00000000       0.00000000       0.24038681
Te       0.00000000       0.00000000       4.53030303       0.00000000       0.00000000      -0.24038681
2
Properties=species:S:1:pos:R:3:forces:R:3 energy=-1.5085178953058451 pbc="F F F"
Te       0.00000000       0.00000000       0.00000000       0.00000000       0.00000000       0.22350214
Te       0.00000000       0.00000000       4.58909091       0.00000000       0.00000000      -0.22350214
2
Properties=species:S:1:pos:R:3:forces:R:3 energy=-1.495797254506953 pbc="F F F"
Te       0.00000000       0.00000000       0.00000000       0.00000000       0.00000000       0.20968746
Te       0.00000000       0.00000000       4.64787879       0.00000000       0.00000000      -0.20968746
2
Properties=species:S:1:pos:R:3:forces:R:3 energy=-1.4838237662121576 pbc="F F F"
Te       0.00000000       0.00000000       0.00000000       0.00000000       0.00000000       0.19789802
Te       0.00000000       0.00000000       4.70666667       0.00000000       0.00000000      -0.19789802
2
Properties=species:S:1:pos:R:3:forces:R:3 energy=-1.4725067704534556 pbc="F F F"
Te       0.00000000       0.00000000       0.00000000       0.00000000       0.00000000       0.18725957
Te       0.00000000       0.00000000       4.76545455       0.00000000       0.00000000      -0.18725957
2
Properties=species:S:1:pos:R:3:forces:R:3 energy=-1.461796216112858 pbc="F F F"
Te       0.00000000       0.00000000       0.00000000       0.00000000       0.00000000       0.17717013
Te       0.00000000       0.00000000       4.82424242       0.00000000       0.00000000      -0.17717013
2
Properties=species:S:1:pos:R:3:forces:R:3 energy=-1.4516704698966347 pbc="F F F"
Te       0.00000000       0.00000000       0.00000000       0.00000000       0.00000000       0.16740257
Te       0.00000000       0.00000000       4.88303030       0.00000000       0.00000000      -0.16740257
2
Properties=species:S:1:pos:R:3:forces:R:3 energy=-1.4421035563714026 pbc="F F F"
Te       0.00000000       0.00000000       0.00000000       0.00000000       0.00000000       0.15817004
Te       0.00000000       0.00000000       4.94181818       0.00000000       0.00000000      -0.15817004
2
Properties=species:S:1:pos:R:3:forces:R:3 energy=-1.4330493807402582 pbc="F F F"
Te       0.00000000       0.00000000       0.00000000       0.00000000       0.00000000       0.15012111
Te       0.00000000       0.00000000       5.00060606       0.00000000       0.00000000      -0.15012111
2
Properties=species:S:1:pos:R:3:forces:R:3 energy=-1.4244107296757595 pbc="F F F"
Te       0.00000000       0.00000000       0.00000000       0.00000000       0.00000000       0.14420784
Te       0.00000000       0.00000000       5.05939394       0.00000000       0.00000000      -0.14420784
2
Properties=species:S:1:pos:R:3:forces:R:3 energy=-1.4160327880848718 pbc="F F F"
Te       0.00000000       0.00000000       0.00000000       0.00000000       0.00000000       0.14139524
Te       0.00000000       0.00000000       5.11818182       0.00000000       0.00000000      -0.14139524
2
Properties=species:S:1:pos:R:3:forces:R:3 energy=-1.4077162342918343 pbc="F F F"
Te       0.00000000       0.00000000       0.00000000       0.00000000       0.00000000       0.14214011
Te       0.00000000       0.00000000       5.17696970       0.00000000       0.00000000      -0.14214011
2
Properties=species:S:1:pos:R:3:forces:R:3 energy=-1.3992637205737106 pbc="F F F"
Te       0.00000000       0.00000000       0.00000000       0.00000000       0.00000000       0.14577846
Te       0.00000000       0.00000000       5.23575758       0.00000000       0.00000000      -0.14577846
2
Properties=species:S:1:pos:R:3:forces:R:3 energy=-1.3905621719196863 pbc="F F F"
Te       0.00000000       0.00000000       0.00000000       0.00000000       0.00000000       0.15012842
Te       0.00000000       0.00000000       5.29454545       0.00000000       0.00000000      -0.15012842
2
Properties=species:S:1:pos:R:3:forces:R:3 energy=-1.381660697805323 pbc="F F F"
Te       0.00000000       0.00000000       0.00000000       0.00000000       0.00000000       0.15201798
Te       0.00000000       0.00000000       5.35333333       0.00000000       0.00000000      -0.15201798
2
Properties=species:S:1:pos:R:3:forces:R:3 energy=-1.3727773649473078 pbc="F F F"
Te       0.00000000       0.00000000       0.00000000       0.00000000       0.00000000       0.14946033
Te       0.00000000       0.00000000       5.41212121       0.00000000       0.00000000      -0.14946033
2
Properties=species:S:1:pos:R:3:forces:R:3 energy=-1.3641437321348089 pbc="F F F"
Te       0.00000000       0.00000000       0.00000000       0.00000000       0.00000000       0.14405857
Te       0.00000000       0.00000000       5.47090909       0.00000000       0.00000000      -0.14405857
2
Properties=species:S:1:pos:R:3:forces:R:3 energy=-1.3558649016913646 pbc="F F F"
Te       0.00000000       0.00000000       0.00000000       0.00000000       0.00000000       0.13710713
Te       0.00000000       0.00000000       5.52969697       0.00000000       0.00000000      -0.13710713
2
Properties=species:S:1:pos:R:3:forces:R:3 energy=-1.3481216188184504 pbc="F F F"
Te       0.00000000       0.00000000       0.00000000       0.00000000       0.00000000       0.12528600
Te       0.00000000       0.00000000       5.58848485       0.00000000       0.00000000      -0.12528600
2
Properties=species:S:1:pos:R:3:forces:R:3 energy=-1.3412481754501744 pbc="F F F"
Te       0.00000000       0.00000000       0.00000000       0.00000000       0.00000000       0.10780372
Te       0.00000000       0.00000000       5.64727273       0.00000000       0.00000000      -0.10780372
2
Properties=species:S:1:pos:R:3:forces:R:3 energy=-1.3354865943625813 pbc="F F F"
Te       0.00000000       0.00000000       0.00000000       0.00000000       0.00000000       0.08855280
Te       0.00000000       0.00000000       5.70606061       0.00000000       0.00000000      -0.08855280
2
Properties=species:S:1:pos:R:3:forces:R:3 energy=-1.3307515833007002 pbc="F F F"
Te       0.00000000       0.00000000       0.00000000       0.00000000       0.00000000       0.07286728
Te       0.00000000       0.00000000       5.76484848       0.00000000       0.00000000      -0.07286728
2
Properties=species:S:1:pos:R:3:forces:R:3 energy=-1.326939351978836 pbc="F F F"
Te       0.00000000       0.00000000       0.00000000       0.00000000       0.00000000       0.05601765
Te       0.00000000       0.00000000       5.82363636       0.00000000       0.00000000      -0.05601765
2
Properties=species:S:1:pos:R:3:forces:R:3 energy=-1.324291041606633 pbc="F F F"
Te       0.00000000       0.00000000       0.00000000       0.00000000       0.00000000       0.03384244
Te       0.00000000       0.00000000       5.88242424       0.00000000       0.00000000      -0.03384244
2
Properties=species:S:1:pos:R:3:forces:R:3 energy=-1.3228960360083595 pbc="F F F"
Te       0.00000000       0.00000000       0.00000000       0.00000000       0.00000000       0.01483328
Te       0.00000000       0.00000000       5.94121212       0.00000000       0.00000000      -0.01483328
2
Properties=species:S:1:pos:R:3:forces:R:3 energy=-1.3223168155323803 pbc="F F F"
Te       0.00000000       0.00000000       0.00000000       0.00000000       0.00000000       0.00726031
Te       0.00000000       0.00000000       6.00000000       0.00000000       0.00000000      -0.00726031
