2
Properties=species:S:1:pos:R:3:forces:R:3 energy=20051.571386699197 pbc="F F F"
Y        0.00000000       0.00000000       0.00000000       0.00000000       0.00000000 -100251.29687500
Y        0.00000000       0.00000000       0.18000000       0.00000000       0.00000000  100251.29687500
2
Properties=species:S:1:pos:R:3:forces:R:3 energy=16362.1426757617 pbc="F F F"
Y        0.00000000       0.00000000       0.00000000       0.00000000       0.00000000  -38570.72265625
Y        0.00000000       0.00000000       0.23878788       0.00000000       0.00000000   38570.72265625
2
Properties=species:S:1:pos:R:3:forces:R:3 energy=14677.7334960742 pbc="F F F"
Y        0.00000000       0.00000000       0.00000000       0.00000000       0.00000000  -22536.34179688
Y        0.00000000       0.00000000       0.29757576       0.00000000       0.00000000   22536.34179688
2
Properties=species:S:1:pos:R:3:forces:R:3 energy=13430.95810546187 pbc="F F F"
Y        0.00000000       0.00000000       0.00000000       0.00000000       0.00000000  -21420.81250000
Y        0.00000000       0.00000000       0.35636364       0.00000000       0.00000000   21420.81250000
2
Properties=species:S:1:pos:R:3:forces:R:3 energy=12016.84287108687 pbc="F F F"
Y        0.00000000       0.00000000       0.00000000       0.00000000       0.00000000  -29108.99609375
Y        0.00000000       0.00000000       0.41515152       0.00000000       0.00000000   29108.99609375
2
Properties=species:S:1:pos:R:3:forces:R:3 energy=10052.69150389937 pbc="F F F"
Y        0.00000000       0.00000000       0.00000000       0.00000000       0.00000000  -37826.62890625
Y        0.00000000       0.00000000       0.47393939       0.00000000       0.00000000   37826.62890625
2
Properties=species:S:1:pos:R:3:forces:R:3 energy=7597.980078137127 pbc="F F F"
Y        0.00000000       0.00000000       0.00000000       0.00000000       0.00000000  -45080.35546875
Y        0.00000000       0.00000000       0.53272727       0.00000000       0.00000000   45080.35546875
2
Properties=species:S:1:pos:R:3:forces:R:3 energy=4851.844335974969 pbc="F F F"
Y        0.00000000       0.00000000       0.00000000       0.00000000       0.00000000  -48064.51562500
Y        0.00000000       0.00000000       0.59151515       0.00000000       0.00000000   48064.51562500
2
Properties=species:S:1:pos:R:3:forces:R:3 energy=2190.8211426599437 pbc="F F F"
Y        0.00000000       0.00000000       0.00000000       0.00000000       0.00000000  -40989.91015625
Y        0.00000000       0.00000000       0.65030303       0.00000000       0.00000000   40989.91015625
2
Properties=species:S:1:pos:R:3:forces:R:3 energy=178.97911696646437 pbc="F F F"
Y        0.00000000       0.00000000       0.00000000       0.00000000       0.00000000  -26007.74609375
Y        0.00000000       0.00000000       0.70909091       0.00000000       0.00000000   26007.74609375
2
Properties=species:S:1:pos:R:3:forces:R:3 energy=-817.9734128457275 pbc="F F F"
Y        0.00000000       0.00000000       0.00000000       0.00000000       0.00000000   -6736.63281250
Y        0.00000000       0.00000000       0.76787879       0.00000000       0.00000000    6736.63281250
2
Properties=species:S:1:pos:R:3:forces:R:3 energy=-575.7464839890702 pbc="F F F"
Y        0.00000000       0.00000000       0.00000000       0.00000000       0.00000000    4290.74072266
Y        0.00000000       0.00000000       0.82666667       0.00000000       0.00000000   -4290.74072266
2
Properties=species:S:1:pos:R:3:forces:R:3 energy=-345.38488100312645 pbc="F F F"
Y        0.00000000       0.00000000       0.00000000       0.00000000       0.00000000    2447.66625977
Y        0.00000000       0.00000000       0.88545455       0.00000000       0.00000000   -2447.66625977
2
Properties=species:S:1:pos:R:3:forces:R:3 energy=-256.09438388551496 pbc="F F F"
Y        0.00000000       0.00000000       0.00000000       0.00000000       0.00000000    1586.20544434
Y        0.00000000       0.00000000       0.94424242       0.00000000       0.00000000   -1586.20544434
2
Properties=species:S:1:pos:R:3:forces:R:3 energy=-174.3814776025803 pbc="F F F"
Y        0.00000000       0.00000000       0.00000000       0.00000000       0.00000000    1516.81835938
Y        0.00000000       0.00000000       1.00303030       0.00000000       0.00000000   -1516.81835938
2
Properties=species:S:1:pos:R:3:forces:R:3 energy=-86.53554505721459 pbc="F F F"
Y        0.00000000       0.00000000       0.00000000       0.00000000       0.00000000    1329.80969238
Y        0.00000000       0.00000000       1.06181818       0.00000000       0.00000000   -1329.80969238
2
Properties=species:S:1:pos:R:3:forces:R:3 energy=-34.777106237270864 pbc="F F F"
Y        0.00000000       0.00000000       0.00000000       0.00000000       0.00000000     536.92651367
Y        0.00000000       0.00000000       1.12060606       0.00000000       0.00000000    -536.92651367
2
Properties=species:S:1:pos:R:3:forces:R:3 energy=-9.137394885936233 pbc="F F F"
Y        0.00000000       0.00000000       0.00000000       0.00000000       0.00000000     343.67144775
Y        0.00000000       0.00000000       1.17939394       0.00000000       0.00000000    -343.67144775
2
Properties=species:S:1:pos:R:3:forces:R:3 energy=6.309320719081301 pbc="F F F"
Y        0.00000000       0.00000000       0.00000000       0.00000000       0.00000000     187.69113159
Y        0.00000000       0.00000000       1.23818182       0.00000000       0.00000000    -187.69113159
2
Properties=species:S:1:pos:R:3:forces:R:3 energy=13.49587717373095 pbc="F F F"
Y        0.00000000       0.00000000       0.00000000       0.00000000       0.00000000      75.64130402
Y        0.00000000       0.00000000       1.29696970       0.00000000       0.00000000     -75.64130402
2
Properties=species:S:1:pos:R:3:forces:R:3 energy=17.04533094677668 pbc="F F F"
Y        0.00000000       0.00000000       0.00000000       0.00000000       0.00000000      53.43018341
Y        0.00000000       0.00000000       1.35575758       0.00000000       0.00000000     -53.43018341
2
Properties=species:S:1:pos:R:3:forces:R:3 energy=19.889821536256274 pbc="F F F"
Y        0.00000000       0.00000000       0.00000000       0.00000000       0.00000000      39.59056091
Y        0.00000000       0.00000000       1.41454545       0.00000000       0.00000000     -39.59056091
2
Properties=species:S:1:pos:R:3:forces:R:3 energy=21.180985154525988 pbc="F F F"
Y        0.00000000       0.00000000       0.00000000       0.00000000       0.00000000       1.17161107
Y        0.00000000       0.00000000       1.47333333       0.00000000       0.00000000      -1.17161107
2
Properties=species:S:1:pos:R:3:forces:R:3 energy=19.926167102541083 pbc="F F F"
Y        0.00000000       0.00000000       0.00000000       0.00000000       0.00000000     -42.71942139
Y        0.00000000       0.00000000       1.53212121       0.00000000       0.00000000      42.71942139
2
Properties=species:S:1:pos:R:3:forces:R:3 energy=16.456073181392867 pbc="F F F"
Y        0.00000000       0.00000000       0.00000000       0.00000000       0.00000000     -71.82416534
Y        0.00000000       0.00000000       1.59090909       0.00000000       0.00000000      71.82416534
2
Properties=species:S:1:pos:R:3:forces:R:3 energy=11.926564418673129 pbc="F F F"
Y        0.00000000       0.00000000       0.00000000       0.00000000       0.00000000     -78.66872406
Y        0.00000000       0.00000000       1.64969697       0.00000000       0.00000000      78.66872406
2
Properties=species:S:1:pos:R:3:forces:R:3 energy=7.545727946576884 pbc="F F F"
Y        0.00000000       0.00000000       0.00000000       0.00000000       0.00000000     -68.41323090
Y        0.00000000       0.00000000       1.70848485       0.00000000       0.00000000      68.41323090
2
Properties=species:S:1:pos:R:3:forces:R:3 energy=3.998905815538011 pbc="F F F"
Y        0.00000000       0.00000000       0.00000000       0.00000000       0.00000000     -52.09667969
Y        0.00000000       0.00000000       1.76727273       0.00000000       0.00000000      52.09667969
2
Properties=species:S:1:pos:R:3:forces:R:3 energy=1.378917416821737 pbc="F F F"
Y        0.00000000       0.00000000       0.00000000       0.00000000       0.00000000     -37.68180084
Y        0.00000000       0.00000000       1.82606061       0.00000000       0.00000000      37.68180084
2
Properties=species:S:1:pos:R:3:forces:R:3 energy=-0.5137463593871575 pbc="F F F"
Y        0.00000000       0.00000000       0.00000000       0.00000000       0.00000000     -27.36621857
Y        0.00000000       0.00000000       1.88484848       0.00000000       0.00000000      27.36621857
2
Properties=species:S:1:pos:R:3:forces:R:3 energy=-1.9037120582261082 pbc="F F F"
Y        0.00000000       0.00000000       0.00000000       0.00000000       0.00000000     -20.36236382
Y        0.00000000       0.00000000       1.94363636       0.00000000       0.00000000      20.36236382
2
Properties=species:S:1:pos:R:3:forces:R:3 energy=-2.9482762525580912 pbc="F F F"
Y        0.00000000       0.00000000       0.00000000       0.00000000       0.00000000     -15.43748569
Y        0.00000000       0.00000000       2.00242424       0.00000000       0.00000000      15.43748569
2
Properties=species:S:1:pos:R:3:forces:R:3 energy=-3.7430136818100483 pbc="F F F"
Y        0.00000000       0.00000000       0.00000000       0.00000000       0.00000000     -11.76114082
Y        0.00000000       0.00000000       2.06121212       0.00000000       0.00000000      11.76114082
2
Properties=species:S:1:pos:R:3:forces:R:3 energy=-4.346493091373491 pbc="F F F"
Y        0.00000000       0.00000000       0.00000000       0.00000000       0.00000000      -8.87796021
Y        0.00000000       0.00000000       2.12000000       0.00000000       0.00000000       8.87796021
2
Properties=species:S:1:pos:R:3:forces:R:3 energy=-4.79798444508994 pbc="F F F"
Y        0.00000000       0.00000000       0.00000000       0.00000000       0.00000000      -6.56767273
Y        0.00000000       0.00000000       2.17878788       0.00000000       0.00000000       6.56767273
2
Properties=species:S:1:pos:R:3:forces:R:3 energy=-5.128226860293629 pbc="F F F"
Y        0.00000000       0.00000000       0.00000000       0.00000000       0.00000000      -4.74574661
Y        0.00000000       0.00000000       2.23757576       0.00000000       0.00000000       4.74574661
2
Properties=species:S:1:pos:R:3:forces:R:3 energy=-5.36501541735454 pbc="F F F"
Y        0.00000000       0.00000000       0.00000000       0.00000000       0.00000000      -3.38546705
Y        0.00000000       0.00000000       2.29636364       0.00000000       0.00000000       3.38546705
2
Properties=species:S:1:pos:R:3:forces:R:3 energy=-5.5348593062111515 pbc="F F F"
Y        0.00000000       0.00000000       0.00000000       0.00000000       0.00000000      -2.46171927
Y        0.00000000       0.00000000       2.35515152       0.00000000       0.00000000       2.46171927
2
Properties=species:S:1:pos:R:3:forces:R:3 energy=-5.661758693046308 pbc="F F F"
Y        0.00000000       0.00000000       0.00000000       0.00000000       0.00000000      -1.90898263
Y        0.00000000       0.00000000       2.41393939       0.00000000       0.00000000       1.90898263
2
Properties=species:S:1:pos:R:3:forces:R:3 energy=-5.764379563159007 pbc="F F F"
Y        0.00000000       0.00000000       0.00000000       0.00000000       0.00000000      -1.61469531
Y        0.00000000       0.00000000       2.47272727       0.00000000       0.00000000       1.61469531
2
Properties=species:S:1:pos:R:3:forces:R:3 energy=-5.854239421941855 pbc="F F F"
Y        0.00000000       0.00000000       0.00000000       0.00000000       0.00000000      -1.45590949
Y        0.00000000       0.00000000       2.53151515       0.00000000       0.00000000       1.45590949
2
Properties=species:S:1:pos:R:3:forces:R:3 energy=-5.936370499340393 pbc="F F F"
Y        0.00000000       0.00000000       0.00000000       0.00000000       0.00000000      -1.33997452
Y        0.00000000       0.00000000       2.59030303       0.00000000       0.00000000       1.33997452
2
Properties=species:S:1:pos:R:3:forces:R:3 energy=-6.011627148862685 pbc="F F F"
Y        0.00000000       0.00000000       0.00000000       0.00000000       0.00000000      -1.21678996
Y        0.00000000       0.00000000       2.64909091       0.00000000       0.00000000       1.21678996
2
Properties=species:S:1:pos:R:3:forces:R:3 energy=-6.078929649848814 pbc="F F F"
Y        0.00000000       0.00000000       0.00000000       0.00000000       0.00000000      -1.06827533
Y        0.00000000       0.00000000       2.70787879       0.00000000       0.00000000       1.06827533
2
Properties=species:S:1:pos:R:3:forces:R:3 energy=-6.13670989037968 pbc="F F F"
Y        0.00000000       0.00000000       0.00000000       0.00000000       0.00000000      -0.89348722
Y        0.00000000       0.00000000       2.76666667       0.00000000       0.00000000       0.89348722
2
Properties=species:S:1:pos:R:3:forces:R:3 energy=-6.183581827008138 pbc="F F F"
Y        0.00000000       0.00000000       0.00000000       0.00000000       0.00000000      -0.69831520
Y        0.00000000       0.00000000       2.82545455       0.00000000       0.00000000       0.69831520
2
Properties=species:S:1:pos:R:3:forces:R:3 energy=-6.218565296800702 pbc="F F F"
Y        0.00000000       0.00000000       0.00000000       0.00000000       0.00000000      -0.49037018
Y        0.00000000       0.00000000       2.88424242       0.00000000       0.00000000       0.49037018
2
Properties=species:S:1:pos:R:3:forces:R:3 energy=-6.241136159283357 pbc="F F F"
Y        0.00000000       0.00000000       0.00000000       0.00000000       0.00000000      -0.27734077
Y        0.00000000       0.00000000       2.94303030       0.00000000       0.00000000       0.27734077
2
Properties=species:S:1:pos:R:3:forces:R:3 energy=-6.251225136059549 pbc="F F F"
Y        0.00000000       0.00000000       0.00000000       0.00000000       0.00000000      -0.06696285
Y        0.00000000       0.00000000       3.00181818       0.00000000       0.00000000       0.06696285
2
Properties=species:S:1:pos:R:3:forces:R:3 energy=-6.249218374043128 pbc="F F F"
Y        0.00000000       0.00000000       0.00000000       0.00000000       0.00000000       0.13283621
Y        0.00000000       0.00000000       3.06060606       0.00000000       0.00000000      -0.13283621
2
Properties=species:S:1:pos:R:3:forces:R:3 energy=-6.235965214622091 pbc="F F F"
Y        0.00000000       0.00000000       0.00000000       0.00000000       0.00000000       0.31442413
Y        0.00000000       0.00000000       3.11939394       0.00000000       0.00000000      -0.31442413
2
Properties=species:S:1:pos:R:3:forces:R:3 energy=-6.212731118869354 pbc="F F F"
Y        0.00000000       0.00000000       0.00000000       0.00000000       0.00000000       0.47148219
Y        0.00000000       0.00000000       3.17818182       0.00000000       0.00000000      -0.47148219
2
Properties=species:S:1:pos:R:3:forces:R:3 energy=-6.181091893081439 pbc="F F F"
Y        0.00000000       0.00000000       0.00000000       0.00000000       0.00000000       0.59997404
Y        0.00000000       0.00000000       3.23696970       0.00000000       0.00000000      -0.59997404
2
Properties=species:S:1:pos:R:3:forces:R:3 energy=-6.142771326972238 pbc="F F F"
Y        0.00000000       0.00000000       0.00000000       0.00000000       0.00000000       0.69883394
Y        0.00000000       0.00000000       3.29575758       0.00000000       0.00000000      -0.69883394
2
Properties=species:S:1:pos:R:3:forces:R:3 energy=-6.099459270594188 pbc="F F F"
Y        0.00000000       0.00000000       0.00000000       0.00000000       0.00000000       0.77056450
Y        0.00000000       0.00000000       3.35454545       0.00000000       0.00000000      -0.77056450
2
Properties=species:S:1:pos:R:3:forces:R:3 energy=-6.052573264890201 pbc="F F F"
Y        0.00000000       0.00000000       0.00000000       0.00000000       0.00000000       0.82195306
Y        0.00000000       0.00000000       3.41333333       0.00000000       0.00000000      -0.82195306
2
Properties=species:S:1:pos:R:3:forces:R:3 energy=-6.003008656660212 pbc="F F F"
Y        0.00000000       0.00000000       0.00000000       0.00000000       0.00000000       0.86361408
Y        0.00000000       0.00000000       3.47212121       0.00000000       0.00000000      -0.86361408
2
Properties=species:S:1:pos:R:3:forces:R:3 energy=-5.951023683095319 pbc="F F F"
Y        0.00000000       0.00000000       0.00000000       0.00000000       0.00000000       0.90550536
Y        0.00000000       0.00000000       3.53090909       0.00000000       0.00000000      -0.90550536
2
Properties=species:S:1:pos:R:3:forces:R:3 energy=-5.896499571286294 pbc="F F F"
Y        0.00000000       0.00000000       0.00000000       0.00000000       0.00000000       0.94926143
Y        0.00000000       0.00000000       3.58969697       0.00000000       0.00000000      -0.94926143
2
Properties=species:S:1:pos:R:3:forces:R:3 energy=-5.839527860827347 pbc="F F F"
Y        0.00000000       0.00000000       0.00000000       0.00000000       0.00000000       0.98713452
Y        0.00000000       0.00000000       3.64848485       0.00000000       0.00000000      -0.98713452
2
Properties=species:S:1:pos:R:3:forces:R:3 energy=-5.780715729965583 pbc="F F F"
Y        0.00000000       0.00000000       0.00000000       0.00000000       0.00000000       1.01099312
Y        0.00000000       0.00000000       3.70727273       0.00000000       0.00000000      -1.01099312
2
Properties=species:S:1:pos:R:3:forces:R:3 energy=-5.720972138289383 pbc="F F F"
Y        0.00000000       0.00000000       0.00000000       0.00000000       0.00000000       1.01905072
Y        0.00000000       0.00000000       3.76606061       0.00000000       0.00000000      -1.01905072
2
Properties=species:S:1:pos:R:3:forces:R:3 energy=-5.6611542088816575 pbc="F F F"
Y        0.00000000       0.00000000       0.00000000       0.00000000       0.00000000       1.01416790
Y        0.00000000       0.00000000       3.82484848       0.00000000       0.00000000      -1.01416790
2
Properties=species:S:1:pos:R:3:forces:R:3 energy=-5.601911653500853 pbc="F F F"
Y        0.00000000       0.00000000       0.00000000       0.00000000       0.00000000       1.00004220
Y        0.00000000       0.00000000       3.88363636       0.00000000       0.00000000      -1.00004220
2
Properties=species:S:1:pos:R:3:forces:R:3 energy=-5.543696897645273 pbc="F F F"
Y        0.00000000       0.00000000       0.00000000       0.00000000       0.00000000       0.97961915
Y        0.00000000       0.00000000       3.94242424       0.00000000       0.00000000      -0.97961915
2
Properties=species:S:1:pos:R:3:forces:R:3 energy=-5.486812467270677 pbc="F F F"
Y        0.00000000       0.00000000       0.00000000       0.00000000       0.00000000       0.95511431
Y        0.00000000       0.00000000       4.00121212       0.00000000       0.00000000      -0.95511431
2
Properties=species:S:1:pos:R:3:forces:R:3 energy=-5.43144427101954 pbc="F F F"
Y        0.00000000       0.00000000       0.00000000       0.00000000       0.00000000       0.92825752
Y        0.00000000       0.00000000       4.06000000       0.00000000       0.00000000      -0.92825752
2
Properties=species:S:1:pos:R:3:forces:R:3 energy=-5.377690523396366 pbc="F F F"
Y        0.00000000       0.00000000       0.00000000       0.00000000       0.00000000       0.90041417
Y        0.00000000       0.00000000       4.11878788       0.00000000       0.00000000      -0.90041417
2
Properties=species:S:1:pos:R:3:forces:R:3 energy=-5.32557652812906 pbc="F F F"
Y        0.00000000       0.00000000       0.00000000       0.00000000       0.00000000       0.87258625
Y        0.00000000       0.00000000       4.17757576       0.00000000       0.00000000      -0.87258625
2
Properties=species:S:1:pos:R:3:forces:R:3 energy=-5.275081190341065 pbc="F F F"
Y        0.00000000       0.00000000       0.00000000       0.00000000       0.00000000       0.84542066
Y        0.00000000       0.00000000       4.23636364       0.00000000       0.00000000      -0.84542066
2
Properties=species:S:1:pos:R:3:forces:R:3 energy=-5.226154361431228 pbc="F F F"
Y        0.00000000       0.00000000       0.00000000       0.00000000       0.00000000       0.81927645
Y        0.00000000       0.00000000       4.29515152       0.00000000       0.00000000      -0.81927645
2
Properties=species:S:1:pos:R:3:forces:R:3 energy=-5.178731910801513 pbc="F F F"
Y        0.00000000       0.00000000       0.00000000       0.00000000       0.00000000       0.79431903
Y        0.00000000       0.00000000       4.35393939       0.00000000       0.00000000      -0.79431903
2
Properties=species:S:1:pos:R:3:forces:R:3 energy=-5.132739114402256 pbc="F F F"
Y        0.00000000       0.00000000       0.00000000       0.00000000       0.00000000       0.77058852
Y        0.00000000       0.00000000       4.41272727       0.00000000       0.00000000      -0.77058852
2
Properties=species:S:1:pos:R:3:forces:R:3 energy=-5.088105143580598 pbc="F F F"
Y        0.00000000       0.00000000       0.00000000       0.00000000       0.00000000       0.74805248
Y        0.00000000       0.00000000       4.47151515       0.00000000       0.00000000      -0.74805248
2
Properties=species:S:1:pos:R:3:forces:R:3 energy=-5.044764183481554 pbc="F F F"
Y        0.00000000       0.00000000       0.00000000       0.00000000       0.00000000       0.72658783
Y        0.00000000       0.00000000       4.53030303       0.00000000       0.00000000      -0.72658783
2
Properties=species:S:1:pos:R:3:forces:R:3 energy=-5.002661034716673 pbc="F F F"
Y        0.00000000       0.00000000       0.00000000       0.00000000       0.00000000       0.70592892
Y        0.00000000       0.00000000       4.58909091       0.00000000       0.00000000      -0.70592892
2
Properties=species:S:1:pos:R:3:forces:R:3 energy=-4.96175746430255 pbc="F F F"
Y        0.00000000       0.00000000       0.00000000       0.00000000       0.00000000       0.68565309
Y        0.00000000       0.00000000       4.64787879       0.00000000       0.00000000      -0.68565309
2
Properties=species:S:1:pos:R:3:forces:R:3 energy=-4.922048468809362 pbc="F F F"
Y        0.00000000       0.00000000       0.00000000       0.00000000       0.00000000       0.66514522
Y        0.00000000       0.00000000       4.70666667       0.00000000       0.00000000      -0.66514522
2
Properties=species:S:1:pos:R:3:forces:R:3 energy=-4.883570171516303 pbc="F F F"
Y        0.00000000       0.00000000       0.00000000       0.00000000       0.00000000       0.64370358
Y        0.00000000       0.00000000       4.76545455       0.00000000       0.00000000      -0.64370358
2
Properties=species:S:1:pos:R:3:forces:R:3 energy=-4.846394322113225 pbc="F F F"
Y        0.00000000       0.00000000       0.00000000       0.00000000       0.00000000       0.62070978
Y        0.00000000       0.00000000       4.82424242       0.00000000       0.00000000      -0.62070978
2
Properties=species:S:1:pos:R:3:forces:R:3 energy=-4.810627190970865 pbc="F F F"
Y        0.00000000       0.00000000       0.00000000       0.00000000       0.00000000       0.59591919
Y        0.00000000       0.00000000       4.88303030       0.00000000       0.00000000      -0.59591919
2
Properties=species:S:1:pos:R:3:forces:R:3 energy=-4.776356532510331 pbc="F F F"
Y        0.00000000       0.00000000       0.00000000       0.00000000       0.00000000       0.56976151
Y        0.00000000       0.00000000       4.94181818       0.00000000       0.00000000      -0.56976151
2
Properties=species:S:1:pos:R:3:forces:R:3 energy=-4.743634889566918 pbc="F F F"
Y        0.00000000       0.00000000       0.00000000       0.00000000       0.00000000       0.54354703
Y        0.00000000       0.00000000       5.00060606       0.00000000       0.00000000      -0.54354703
2
Properties=species:S:1:pos:R:3:forces:R:3 energy=-4.712409472985276 pbc="F F F"
Y        0.00000000       0.00000000       0.00000000       0.00000000       0.00000000       0.51928473
Y        0.00000000       0.00000000       5.05939394       0.00000000       0.00000000      -0.51928473
2
Properties=species:S:1:pos:R:3:forces:R:3 energy=-4.682500037040807 pbc="F F F"
Y        0.00000000       0.00000000       0.00000000       0.00000000       0.00000000       0.49904048
Y        0.00000000       0.00000000       5.11818182       0.00000000       0.00000000      -0.49904048
2
Properties=species:S:1:pos:R:3:forces:R:3 energy=-4.653639798736244 pbc="F F F"
Y        0.00000000       0.00000000       0.00000000       0.00000000       0.00000000       0.48361182
Y        0.00000000       0.00000000       5.17696970       0.00000000       0.00000000      -0.48361182
2
Properties=species:S:1:pos:R:3:forces:R:3 energy=-4.625588899702733 pbc="F F F"
Y        0.00000000       0.00000000       0.00000000       0.00000000       0.00000000       0.47075966
Y        0.00000000       0.00000000       5.23575758       0.00000000       0.00000000      -0.47075966
2
Properties=species:S:1:pos:R:3:forces:R:3 energy=-4.598364872266539 pbc="F F F"
Y        0.00000000       0.00000000       0.00000000       0.00000000       0.00000000       0.45411366
Y        0.00000000       0.00000000       5.29454545       0.00000000       0.00000000      -0.45411366
2
Properties=species:S:1:pos:R:3:forces:R:3 energy=-4.572409233015302 pbc="F F F"
Y        0.00000000       0.00000000       0.00000000       0.00000000       0.00000000       0.42692193
Y        0.00000000       0.00000000       5.35333333       0.00000000       0.00000000      -0.42692193
2
Properties=species:S:1:pos:R:3:forces:R:3 energy=-4.5482691789877405 pbc="F F F"
Y        0.00000000       0.00000000       0.00000000       0.00000000       0.00000000       0.39530337
Y        0.00000000       0.00000000       5.41212121       0.00000000       0.00000000      -0.39530337
2
Properties=species:S:1:pos:R:3:forces:R:3 energy=-4.525561274809064 pbc="F F F"
Y        0.00000000       0.00000000       0.00000000       0.00000000       0.00000000       0.38152978
Y        0.00000000       0.00000000       5.47090909       0.00000000       0.00000000      -0.38152978
2
Properties=species:S:1:pos:R:3:forces:R:3 energy=-4.5031454539041995 pbc="F F F"
Y        0.00000000       0.00000000       0.00000000       0.00000000       0.00000000       0.37954277
Y        0.00000000       0.00000000       5.52969697       0.00000000       0.00000000      -0.37954277
2
Properties=species:S:1:pos:R:3:forces:R:3 energy=-4.481483830549117 pbc="F F F"
Y        0.00000000       0.00000000       0.00000000       0.00000000       0.00000000       0.35176420
Y        0.00000000       0.00000000       5.58848485       0.00000000       0.00000000      -0.35176420
2
Properties=species:S:1:pos:R:3:forces:R:3 energy=-4.46220158353328 pbc="F F F"
Y        0.00000000       0.00000000       0.00000000       0.00000000       0.00000000       0.30408555
Y        0.00000000       0.00000000       5.64727273       0.00000000       0.00000000      -0.30408555
2
Properties=species:S:1:pos:R:3:forces:R:3 energy=-4.445249063812336 pbc="F F F"
Y        0.00000000       0.00000000       0.00000000       0.00000000       0.00000000       0.28093502
Y        0.00000000       0.00000000       5.70606061       0.00000000       0.00000000      -0.28093502
2
Properties=species:S:1:pos:R:3:forces:R:3 energy=-4.428164181277358 pbc="F F F"
Y        0.00000000       0.00000000       0.00000000       0.00000000       0.00000000       0.30329615
Y        0.00000000       0.00000000       5.76484848       0.00000000       0.00000000      -0.30329615
2
Properties=species:S:1:pos:R:3:forces:R:3 energy=-4.410238635544191 pbc="F F F"
Y        0.00000000       0.00000000       0.00000000       0.00000000       0.00000000       0.29324538
Y        0.00000000       0.00000000       5.82363636       0.00000000       0.00000000      -0.29324538
2
Properties=species:S:1:pos:R:3:forces:R:3 energy=-4.3955584277429685 pbc="F F F"
Y        0.00000000       0.00000000       0.00000000       0.00000000       0.00000000       0.19576252
Y        0.00000000       0.00000000       5.88242424       0.00000000       0.00000000      -0.19576252
2
Properties=species:S:1:pos:R:3:forces:R:3 energy=-4.38754475780228 pbc="F F F"
Y        0.00000000       0.00000000       0.00000000       0.00000000       0.00000000       0.08135369
Y        0.00000000       0.00000000       5.94121212       0.00000000       0.00000000      -0.08135369
2
Properties=species:S:1:pos:R:3:forces:R:3 energy=-4.384625760892877 pbc="F F F"
Y        0.00000000       0.00000000       0.00000000       0.00000000       0.00000000       0.03343363
Y        0.00000000       0.00000000       6.00000000       0.00000000       0.00000000      -0.03343363
