2
Properties=species:S:1:pos:R:3:forces:R:3 energy=13961.460415705382 pbc="F F F"
Yb       0.00000000       0.00000000       0.00000000       0.00000000       0.00000000 -239068.76562500
Yb       0.00000000       0.00000000       0.18000000       0.00000000       0.00000000  239068.76562500
2
Properties=species:S:1:pos:R:3:forces:R:3 energy=5590.093716486632 pbc="F F F"
Yb       0.00000000       0.00000000       0.00000000       0.00000000       0.00000000  -79447.11718750
Yb       0.00000000       0.00000000       0.23878788       0.00000000       0.00000000   79447.11718750
2
Properties=species:S:1:pos:R:3:forces:R:3 energy=2591.2301910960064 pbc="F F F"
Yb       0.00000000       0.00000000       0.00000000       0.00000000       0.00000000  -31086.22851562
Yb       0.00000000       0.00000000       0.29757576       0.00000000       0.00000000   31086.22851562
2
Properties=species:S:1:pos:R:3:forces:R:3 energy=1361.0946930554671 pbc="F F F"
Yb       0.00000000       0.00000000       0.00000000       0.00000000       0.00000000  -13484.82617188
Yb       0.00000000       0.00000000       0.35636364       0.00000000       0.00000000   13484.82617188
2
Properties=species:S:1:pos:R:3:forces:R:3 energy=808.3771637585921 pbc="F F F"
Yb       0.00000000       0.00000000       0.00000000       0.00000000       0.00000000   -6327.59179688
Yb       0.00000000       0.00000000       0.41515152       0.00000000       0.00000000    6327.59179688
2
Properties=species:S:1:pos:R:3:forces:R:3 energy=540.4365509719589 pbc="F F F"
Yb       0.00000000       0.00000000       0.00000000       0.00000000       0.00000000   -3199.43286133
Yb       0.00000000       0.00000000       0.47393939       0.00000000       0.00000000    3199.43286133
2
Properties=species:S:1:pos:R:3:forces:R:3 energy=399.86532295728654 pbc="F F F"
Yb       0.00000000       0.00000000       0.00000000       0.00000000       0.00000000   -1762.51330566
Yb       0.00000000       0.00000000       0.53272727       0.00000000       0.00000000    1762.51330566
2
Properties=species:S:1:pos:R:3:forces:R:3 energy=318.7517060456054 pbc="F F F"
Yb       0.00000000       0.00000000       0.00000000       0.00000000       0.00000000   -1079.17150879
Yb       0.00000000       0.00000000       0.59151515       0.00000000       0.00000000    1079.17150879
2
Properties=species:S:1:pos:R:3:forces:R:3 energy=266.332455595338 pbc="F F F"
Yb       0.00000000       0.00000000       0.00000000       0.00000000       0.00000000    -741.41455078
Yb       0.00000000       0.00000000       0.65030303       0.00000000       0.00000000     741.41455078
2
Properties=species:S:1:pos:R:3:forces:R:3 energy=228.68142417088944 pbc="F F F"
Yb       0.00000000       0.00000000       0.00000000       0.00000000       0.00000000    -554.96484375
Yb       0.00000000       0.00000000       0.70909091       0.00000000       0.00000000     554.96484375
2
Properties=species:S:1:pos:R:3:forces:R:3 energy=199.8808871565491 pbc="F F F"
Yb       0.00000000       0.00000000       0.00000000       0.00000000       0.00000000    -431.21368408
Yb       0.00000000       0.00000000       0.76787879       0.00000000       0.00000000     431.21368408
2
Properties=species:S:1:pos:R:3:forces:R:3 energy=177.73910264063582 pbc="F F F"
Yb       0.00000000       0.00000000       0.00000000       0.00000000       0.00000000    -318.83920288
Yb       0.00000000       0.00000000       0.82666667       0.00000000       0.00000000     318.83920288
2
Properties=species:S:1:pos:R:3:forces:R:3 energy=162.8503699522271 pbc="F F F"
Yb       0.00000000       0.00000000       0.00000000       0.00000000       0.00000000    -189.94746399
Yb       0.00000000       0.00000000       0.88545455       0.00000000       0.00000000     189.94746399
2
Properties=species:S:1:pos:R:3:forces:R:3 energy=154.25518592383054 pbc="F F F"
Yb       0.00000000       0.00000000       0.00000000       0.00000000       0.00000000    -115.06088257
Yb       0.00000000       0.00000000       0.94424242       0.00000000       0.00000000     115.06088257
2
Properties=species:S:1:pos:R:3:forces:R:3 energy=147.6123640700224 pbc="F F F"
Yb       0.00000000       0.00000000       0.00000000       0.00000000       0.00000000    -133.32617188
Yb       0.00000000       0.00000000       1.00303030       0.00000000       0.00000000     133.32617188
2
Properties=species:S:1:pos:R:3:forces:R:3 energy=135.77816663584787 pbc="F F F"
Yb       0.00000000       0.00000000       0.00000000       0.00000000       0.00000000    -282.11364746
Yb       0.00000000       0.00000000       1.06181818       0.00000000       0.00000000     282.11364746
2
Properties=species:S:1:pos:R:3:forces:R:3 energy=114.83220637224746 pbc="F F F"
Yb       0.00000000       0.00000000       0.00000000       0.00000000       0.00000000    -364.35162354
Yb       0.00000000       0.00000000       1.12060606       0.00000000       0.00000000     364.35162354
2
Properties=species:S:1:pos:R:3:forces:R:3 energy=94.18386902372994 pbc="F F F"
Yb       0.00000000       0.00000000       0.00000000       0.00000000       0.00000000    -338.58825684
Yb       0.00000000       0.00000000       1.17939394       0.00000000       0.00000000     338.58825684
2
Properties=species:S:1:pos:R:3:forces:R:3 energy=75.34424015757003 pbc="F F F"
Yb       0.00000000       0.00000000       0.00000000       0.00000000       0.00000000    -300.70840454
Yb       0.00000000       0.00000000       1.23818182       0.00000000       0.00000000     300.70840454
2
Properties=species:S:1:pos:R:3:forces:R:3 energy=58.86728253197241 pbc="F F F"
Yb       0.00000000       0.00000000       0.00000000       0.00000000       0.00000000    -259.87222290
Yb       0.00000000       0.00000000       1.29696970       0.00000000       0.00000000     259.87222290
2
Properties=species:S:1:pos:R:3:forces:R:3 energy=44.83731248296257 pbc="F F F"
Yb       0.00000000       0.00000000       0.00000000       0.00000000       0.00000000    -216.33668518
Yb       0.00000000       0.00000000       1.35575758       0.00000000       0.00000000     216.33668518
2
Properties=species:S:1:pos:R:3:forces:R:3 energy=33.60343974889773 pbc="F F F"
Yb       0.00000000       0.00000000       0.00000000       0.00000000       0.00000000    -164.90652466
Yb       0.00000000       0.00000000       1.41454545       0.00000000       0.00000000     164.90652466
2
Properties=species:S:1:pos:R:3:forces:R:3 energy=25.351175072859817 pbc="F F F"
Yb       0.00000000       0.00000000       0.00000000       0.00000000       0.00000000    -118.38717651
Yb       0.00000000       0.00000000       1.47333333       0.00000000       0.00000000     118.38717651
2
Properties=species:S:1:pos:R:3:forces:R:3 energy=19.352954704522563 pbc="F F F"
Yb       0.00000000       0.00000000       0.00000000       0.00000000       0.00000000     -87.65460968
Yb       0.00000000       0.00000000       1.53212121       0.00000000       0.00000000      87.65460968
2
Properties=species:S:1:pos:R:3:forces:R:3 energy=14.944354840704223 pbc="F F F"
Yb       0.00000000       0.00000000       0.00000000       0.00000000       0.00000000     -62.79172134
Yb       0.00000000       0.00000000       1.59090909       0.00000000       0.00000000      62.79172134
2
Properties=species:S:1:pos:R:3:forces:R:3 energy=11.850062256079887 pbc="F F F"
Yb       0.00000000       0.00000000       0.00000000       0.00000000       0.00000000     -44.06295013
Yb       0.00000000       0.00000000       1.64969697       0.00000000       0.00000000      44.06295013
2
Properties=species:S:1:pos:R:3:forces:R:3 energy=9.576045202912734 pbc="F F F"
Yb       0.00000000       0.00000000       0.00000000       0.00000000       0.00000000     -34.57345963
Yb       0.00000000       0.00000000       1.70848485       0.00000000       0.00000000      34.57345963
2
Properties=species:S:1:pos:R:3:forces:R:3 energy=7.691083854659493 pbc="F F F"
Yb       0.00000000       0.00000000       0.00000000       0.00000000       0.00000000     -29.95015144
Yb       0.00000000       0.00000000       1.76727273       0.00000000       0.00000000      29.95015144
2
Properties=species:S:1:pos:R:3:forces:R:3 energy=6.034861482609757 pbc="F F F"
Yb       0.00000000       0.00000000       0.00000000       0.00000000       0.00000000     -26.43572998
Yb       0.00000000       0.00000000       1.82606061       0.00000000       0.00000000      26.43572998
2
Properties=species:S:1:pos:R:3:forces:R:3 energy=4.58266814280712 pbc="F F F"
Yb       0.00000000       0.00000000       0.00000000       0.00000000       0.00000000     -22.96023369
Yb       0.00000000       0.00000000       1.88484848       0.00000000       0.00000000      22.96023369
2
Properties=species:S:1:pos:R:3:forces:R:3 energy=3.335480457108285 pbc="F F F"
Yb       0.00000000       0.00000000       0.00000000       0.00000000       0.00000000     -19.47914505
Yb       0.00000000       0.00000000       1.94363636       0.00000000       0.00000000      19.47914505
2
Properties=species:S:1:pos:R:3:forces:R:3 energy=2.289812805243489 pbc="F F F"
Yb       0.00000000       0.00000000       0.00000000       0.00000000       0.00000000     -16.12988663
Yb       0.00000000       0.00000000       2.00242424       0.00000000       0.00000000      16.12988663
2
Properties=species:S:1:pos:R:3:forces:R:3 energy=1.4335106242252806 pbc="F F F"
Yb       0.00000000       0.00000000       0.00000000       0.00000000       0.00000000     -13.06012344
Yb       0.00000000       0.00000000       2.06121212       0.00000000       0.00000000      13.06012344
2
Properties=species:S:1:pos:R:3:forces:R:3 energy=0.7462512307485434 pbc="F F F"
Yb       0.00000000       0.00000000       0.00000000       0.00000000       0.00000000     -10.39747429
Yb       0.00000000       0.00000000       2.12000000       0.00000000       0.00000000      10.39747429
2
Properties=species:S:1:pos:R:3:forces:R:3 energy=0.20141759010957652 pbc="F F F"
Yb       0.00000000       0.00000000       0.00000000       0.00000000       0.00000000      -8.22185612
Yb       0.00000000       0.00000000       2.17878788       0.00000000       0.00000000       8.22185612
2
Properties=species:S:1:pos:R:3:forces:R:3 energy=-0.23008299418503245 pbc="F F F"
Yb       0.00000000       0.00000000       0.00000000       0.00000000       0.00000000      -6.53604317
Yb       0.00000000       0.00000000       2.23757576       0.00000000       0.00000000       6.53604317
2
Properties=species:S:1:pos:R:3:forces:R:3 energy=-0.5754592230532941 pbc="F F F"
Yb       0.00000000       0.00000000       0.00000000       0.00000000       0.00000000      -5.27758026
Yb       0.00000000       0.00000000       2.29636364       0.00000000       0.00000000       5.27758026
2
Properties=species:S:1:pos:R:3:forces:R:3 energy=-0.8570510985427423 pbc="F F F"
Yb       0.00000000       0.00000000       0.00000000       0.00000000       0.00000000      -4.34799147
Yb       0.00000000       0.00000000       2.35515152       0.00000000       0.00000000       4.34799147
2
Properties=species:S:1:pos:R:3:forces:R:3 energy=-1.090960241479664 pbc="F F F"
Yb       0.00000000       0.00000000       0.00000000       0.00000000       0.00000000      -3.63745165
Yb       0.00000000       0.00000000       2.41393939       0.00000000       0.00000000       3.63745165
2
Properties=species:S:1:pos:R:3:forces:R:3 energy=-1.2871528882952712 pbc="F F F"
Yb       0.00000000       0.00000000       0.00000000       0.00000000       0.00000000      -3.05199552
Yb       0.00000000       0.00000000       2.47272727       0.00000000       0.00000000       3.05199552
2
Properties=species:S:1:pos:R:3:forces:R:3 energy=-1.4510911636152024 pbc="F F F"
Yb       0.00000000       0.00000000       0.00000000       0.00000000       0.00000000      -2.53361559
Yb       0.00000000       0.00000000       2.53151515       0.00000000       0.00000000       2.53361559
2
Properties=species:S:1:pos:R:3:forces:R:3 energy=-1.5858844395126563 pbc="F F F"
Yb       0.00000000       0.00000000       0.00000000       0.00000000       0.00000000      -2.05864978
Yb       0.00000000       0.00000000       2.59030303       0.00000000       0.00000000       2.05864978
2
Properties=species:S:1:pos:R:3:forces:R:3 energy=-1.6938953915813548 pbc="F F F"
Yb       0.00000000       0.00000000       0.00000000       0.00000000       0.00000000      -1.62251949
Yb       0.00000000       0.00000000       2.64909091       0.00000000       0.00000000       1.62251949
2
Properties=species:S:1:pos:R:3:forces:R:3 energy=-1.7774427935502917 pbc="F F F"
Yb       0.00000000       0.00000000       0.00000000       0.00000000       0.00000000      -1.22668874
Yb       0.00000000       0.00000000       2.70787879       0.00000000       0.00000000       1.22668874
2
Properties=species:S:1:pos:R:3:forces:R:3 energy=-1.8389444198795861 pbc="F F F"
Yb       0.00000000       0.00000000       0.00000000       0.00000000       0.00000000      -0.87264079
Yb       0.00000000       0.00000000       2.76666667       0.00000000       0.00000000       0.87264079
2
Properties=species:S:1:pos:R:3:forces:R:3 energy=-1.8808639889550853 pbc="F F F"
Yb       0.00000000       0.00000000       0.00000000       0.00000000       0.00000000      -0.56039304
Yb       0.00000000       0.00000000       2.82545455       0.00000000       0.00000000       0.56039304
2
Properties=species:S:1:pos:R:3:forces:R:3 energy=-1.9056231446190686 pbc="F F F"
Yb       0.00000000       0.00000000       0.00000000       0.00000000       0.00000000      -0.28842148
Yb       0.00000000       0.00000000       2.88424242       0.00000000       0.00000000       0.28842148
2
Properties=species:S:1:pos:R:3:forces:R:3 energy=-1.9155097133665444 pbc="F F F"
Yb       0.00000000       0.00000000       0.00000000       0.00000000       0.00000000      -0.05390466
Yb       0.00000000       0.00000000       2.94303030       0.00000000       0.00000000       0.05390466
2
Properties=species:S:1:pos:R:3:forces:R:3 energy=-1.9126212509951104 pbc="F F F"
Yb       0.00000000       0.00000000       0.00000000       0.00000000       0.00000000       0.14692445
Yb       0.00000000       0.00000000       3.00181818       0.00000000       0.00000000      -0.14692445
2
Properties=species:S:1:pos:R:3:forces:R:3 energy=-1.8988137814424924 pbc="F F F"
Yb       0.00000000       0.00000000       0.00000000       0.00000000       0.00000000       0.31822595
Yb       0.00000000       0.00000000       3.06060606       0.00000000       0.00000000      -0.31822595
2
Properties=species:S:1:pos:R:3:forces:R:3 energy=-1.875708297444625 pbc="F F F"
Yb       0.00000000       0.00000000       0.00000000       0.00000000       0.00000000       0.46389821
Yb       0.00000000       0.00000000       3.11939394       0.00000000       0.00000000      -0.46389821
2
Properties=species:S:1:pos:R:3:forces:R:3 energy=-1.84471036037634 pbc="F F F"
Yb       0.00000000       0.00000000       0.00000000       0.00000000       0.00000000       0.58707011
Yb       0.00000000       0.00000000       3.17818182       0.00000000       0.00000000      -0.58707011
2
Properties=species:S:1:pos:R:3:forces:R:3 energy=-1.807080277676997 pbc="F F F"
Yb       0.00000000       0.00000000       0.00000000       0.00000000       0.00000000       0.68989354
Yb       0.00000000       0.00000000       3.23696970       0.00000000       0.00000000      -0.68989354
2
Properties=species:S:1:pos:R:3:forces:R:3 energy=-1.7639671892036994 pbc="F F F"
Yb       0.00000000       0.00000000       0.00000000       0.00000000       0.00000000       0.77377015
Yb       0.00000000       0.00000000       3.29575758       0.00000000       0.00000000      -0.77377015
2
Properties=species:S:1:pos:R:3:forces:R:3 energy=-1.7164538035610497 pbc="F F F"
Yb       0.00000000       0.00000000       0.00000000       0.00000000       0.00000000       0.83980674
Yb       0.00000000       0.00000000       3.35454545       0.00000000       0.00000000      -0.83980674
2
Properties=species:S:1:pos:R:3:forces:R:3 energy=-1.665551358464814 pbc="F F F"
Yb       0.00000000       0.00000000       0.00000000       0.00000000       0.00000000       0.88927257
Yb       0.00000000       0.00000000       3.41333333       0.00000000       0.00000000      -0.88927257
2
Properties=species:S:1:pos:R:3:forces:R:3 energy=-1.612188026930567 pbc="F F F"
Yb       0.00000000       0.00000000       0.00000000       0.00000000       0.00000000       0.92387104
Yb       0.00000000       0.00000000       3.47212121       0.00000000       0.00000000      -0.92387104
2
Properties=species:S:1:pos:R:3:forces:R:3 energy=-1.5571749489618136 pbc="F F F"
Yb       0.00000000       0.00000000       0.00000000       0.00000000       0.00000000       0.94578600
Yb       0.00000000       0.00000000       3.53090909       0.00000000       0.00000000      -0.94578600
2
Properties=species:S:1:pos:R:3:forces:R:3 energy=-1.5011876412364638 pbc="F F F"
Yb       0.00000000       0.00000000       0.00000000       0.00000000       0.00000000       0.95744771
Yb       0.00000000       0.00000000       3.58969697       0.00000000       0.00000000      -0.95744771
2
Properties=species:S:1:pos:R:3:forces:R:3 energy=-1.444756242119974 pbc="F F F"
Yb       0.00000000       0.00000000       0.00000000       0.00000000       0.00000000       0.96124613
Yb       0.00000000       0.00000000       3.64848485       0.00000000       0.00000000      -0.96124613
2
Properties=species:S:1:pos:R:3:forces:R:3 energy=-1.3882824318808678 pbc="F F F"
Yb       0.00000000       0.00000000       0.00000000       0.00000000       0.00000000       0.95923311
Yb       0.00000000       0.00000000       3.70727273       0.00000000       0.00000000      -0.95923311
2
Properties=species:S:1:pos:R:3:forces:R:3 energy=-1.3320564110950055 pbc="F F F"
Yb       0.00000000       0.00000000       0.00000000       0.00000000       0.00000000       0.95296979
Yb       0.00000000       0.00000000       3.76606061       0.00000000       0.00000000      -0.95296979
2
Properties=species:S:1:pos:R:3:forces:R:3 energy=-1.2762988001270155 pbc="F F F"
Yb       0.00000000       0.00000000       0.00000000       0.00000000       0.00000000       0.94351059
Yb       0.00000000       0.00000000       3.82484848       0.00000000       0.00000000      -0.94351059
2
Properties=species:S:1:pos:R:3:forces:R:3 energy=-1.2211726590936538 pbc="F F F"
Yb       0.00000000       0.00000000       0.00000000       0.00000000       0.00000000       0.93149048
Yb       0.00000000       0.00000000       3.88363636       0.00000000       0.00000000      -0.93149048
2
Properties=species:S:1:pos:R:3:forces:R:3 energy=-1.1668205326105379 pbc="F F F"
Yb       0.00000000       0.00000000       0.00000000       0.00000000       0.00000000       0.91725945
Yb       0.00000000       0.00000000       3.94242424       0.00000000       0.00000000      -0.91725945
2
Properties=species:S:1:pos:R:3:forces:R:3 energy=-1.1133660985473142 pbc="F F F"
Yb       0.00000000       0.00000000       0.00000000       0.00000000       0.00000000       0.90099555
Yb       0.00000000       0.00000000       4.00121212       0.00000000       0.00000000      -0.90099555
2
Properties=species:S:1:pos:R:3:forces:R:3 energy=-1.0609238504906413 pbc="F F F"
Yb       0.00000000       0.00000000       0.00000000       0.00000000       0.00000000       0.88276356
Yb       0.00000000       0.00000000       4.06000000       0.00000000       0.00000000      -0.88276356
2
Properties=species:S:1:pos:R:3:forces:R:3 energy=-1.009612210766041 pbc="F F F"
Yb       0.00000000       0.00000000       0.00000000       0.00000000       0.00000000       0.86257786
Yb       0.00000000       0.00000000       4.11878788       0.00000000       0.00000000      -0.86257786
2
Properties=species:S:1:pos:R:3:forces:R:3 energy=-0.9595440317086003 pbc="F F F"
Yb       0.00000000       0.00000000       0.00000000       0.00000000       0.00000000       0.84042394
Yb       0.00000000       0.00000000       4.17757576       0.00000000       0.00000000      -0.84042394
2
Properties=species:S:1:pos:R:3:forces:R:3 energy=-0.9108362896292892 pbc="F F F"
Yb       0.00000000       0.00000000       0.00000000       0.00000000       0.00000000       0.81631070
Yb       0.00000000       0.00000000       4.23636364       0.00000000       0.00000000      -0.81631070
2
Properties=species:S:1:pos:R:3:forces:R:3 energy=-0.8636022550157181 pbc="F F F"
Yb       0.00000000       0.00000000       0.00000000       0.00000000       0.00000000       0.79029953
Yb       0.00000000       0.00000000       4.29515152       0.00000000       0.00000000      -0.79029953
2
Properties=species:S:1:pos:R:3:forces:R:3 energy=-0.8179510917227095 pbc="F F F"
Yb       0.00000000       0.00000000       0.00000000       0.00000000       0.00000000       0.76255322
Yb       0.00000000       0.00000000       4.35393939       0.00000000       0.00000000      -0.76255322
2
Properties=species:S:1:pos:R:3:forces:R:3 energy=-0.7739743736512915 pbc="F F F"
Yb       0.00000000       0.00000000       0.00000000       0.00000000       0.00000000       0.73334199
Yb       0.00000000       0.00000000       4.41272727       0.00000000       0.00000000      -0.73334199
2
Properties=species:S:1:pos:R:3:forces:R:3 energy=-0.7317484194172855 pbc="F F F"
Yb       0.00000000       0.00000000       0.00000000       0.00000000       0.00000000       0.70305955
Yb       0.00000000       0.00000000       4.47151515       0.00000000       0.00000000      -0.70305955
2
Properties=species:S:1:pos:R:3:forces:R:3 energy=-0.691322739137663 pbc="F F F"
Yb       0.00000000       0.00000000       0.00000000       0.00000000       0.00000000       0.67216778
Yb       0.00000000       0.00000000       4.53030303       0.00000000       0.00000000      -0.67216778
2
Properties=species:S:1:pos:R:3:forces:R:3 energy=-0.6527206774103488 pbc="F F F"
Yb       0.00000000       0.00000000       0.00000000       0.00000000       0.00000000       0.64113003
Yb       0.00000000       0.00000000       4.58909091       0.00000000       0.00000000      -0.64113003
2
Properties=species:S:1:pos:R:3:forces:R:3 energy=-0.6159376885313214 pbc="F F F"
Yb       0.00000000       0.00000000       0.00000000       0.00000000       0.00000000       0.61033654
Yb       0.00000000       0.00000000       4.64787879       0.00000000       0.00000000      -0.61033654
2
Properties=species:S:1:pos:R:3:forces:R:3 energy=-0.5809499385703932 pbc="F F F"
Yb       0.00000000       0.00000000       0.00000000       0.00000000       0.00000000       0.58001894
Yb       0.00000000       0.00000000       4.70666667       0.00000000       0.00000000      -0.58001894
2
Properties=species:S:1:pos:R:3:forces:R:3 energy=-0.5477299109927523 pbc="F F F"
Yb       0.00000000       0.00000000       0.00000000       0.00000000       0.00000000       0.55027097
Yb       0.00000000       0.00000000       4.76545455       0.00000000       0.00000000      -0.55027097
2
Properties=species:S:1:pos:R:3:forces:R:3 energy=-0.516240586286606 pbc="F F F"
Yb       0.00000000       0.00000000       0.00000000       0.00000000       0.00000000       0.52106822
Yb       0.00000000       0.00000000       4.82424242       0.00000000       0.00000000      -0.52106822
2
Properties=species:S:1:pos:R:3:forces:R:3 energy=-0.48645535437428183 pbc="F F F"
Yb       0.00000000       0.00000000       0.00000000       0.00000000       0.00000000       0.49243858
Yb       0.00000000       0.00000000       4.88303030       0.00000000       0.00000000      -0.49243858
2
Properties=species:S:1:pos:R:3:forces:R:3 energy=-0.4583266543575316 pbc="F F F"
Yb       0.00000000       0.00000000       0.00000000       0.00000000       0.00000000       0.46462762
Yb       0.00000000       0.00000000       4.94181818       0.00000000       0.00000000      -0.46462762
2
Properties=species:S:1:pos:R:3:forces:R:3 energy=-0.43179673949155806 pbc="F F F"
Yb       0.00000000       0.00000000       0.00000000       0.00000000       0.00000000       0.43820357
Yb       0.00000000       0.00000000       5.00060606       0.00000000       0.00000000      -0.43820357
2
Properties=species:S:1:pos:R:3:forces:R:3 energy=-0.40675949149054547 pbc="F F F"
Yb       0.00000000       0.00000000       0.00000000       0.00000000       0.00000000       0.41401097
Yb       0.00000000       0.00000000       5.05939394       0.00000000       0.00000000      -0.41401097
2
Properties=species:S:1:pos:R:3:forces:R:3 energy=-0.38305902757004606 pbc="F F F"
Yb       0.00000000       0.00000000       0.00000000       0.00000000       0.00000000       0.39282915
Yb       0.00000000       0.00000000       5.11818182       0.00000000       0.00000000      -0.39282915
2
Properties=species:S:1:pos:R:3:forces:R:3 energy=-0.3605116856414118 pbc="F F F"
Yb       0.00000000       0.00000000       0.00000000       0.00000000       0.00000000       0.37475851
Yb       0.00000000       0.00000000       5.17696970       0.00000000       0.00000000      -0.37475851
2
Properties=species:S:1:pos:R:3:forces:R:3 energy=-0.33896414213224313 pbc="F F F"
Yb       0.00000000       0.00000000       0.00000000       0.00000000       0.00000000       0.35838893
Yb       0.00000000       0.00000000       5.23575758       0.00000000       0.00000000      -0.35838893
2
Properties=species:S:1:pos:R:3:forces:R:3 energy=-0.3184078972538681 pbc="F F F"
Yb       0.00000000       0.00000000       0.00000000       0.00000000       0.00000000       0.34032020
Yb       0.00000000       0.00000000       5.29454545       0.00000000       0.00000000      -0.34032020
2
Properties=species:S:1:pos:R:3:forces:R:3 energy=-0.2990579266219165 pbc="F F F"
Yb       0.00000000       0.00000000       0.00000000       0.00000000       0.00000000       0.31695414
Yb       0.00000000       0.00000000       5.35333333       0.00000000       0.00000000      -0.31695414
2
Properties=species:S:1:pos:R:3:forces:R:3 energy=-0.28119413173326535 pbc="F F F"
Yb       0.00000000       0.00000000       0.00000000       0.00000000       0.00000000       0.29122841
Yb       0.00000000       0.00000000       5.41212121       0.00000000       0.00000000      -0.29122841
2
Properties=species:S:1:pos:R:3:forces:R:3 energy=-0.26462726709371676 pbc="F F F"
Yb       0.00000000       0.00000000       0.00000000       0.00000000       0.00000000       0.27462137
Yb       0.00000000       0.00000000       5.47090909       0.00000000       0.00000000      -0.27462137
2
Properties=species:S:1:pos:R:3:forces:R:3 energy=-0.24876672514026327 pbc="F F F"
Yb       0.00000000       0.00000000       0.00000000       0.00000000       0.00000000       0.26414153
Yb       0.00000000       0.00000000       5.52969697       0.00000000       0.00000000      -0.26414153
2
Properties=species:S:1:pos:R:3:forces:R:3 energy=-0.23386508978951548 pbc="F F F"
Yb       0.00000000       0.00000000       0.00000000       0.00000000       0.00000000       0.23976813
Yb       0.00000000       0.00000000       5.58848485       0.00000000       0.00000000      -0.23976813
2
Properties=species:S:1:pos:R:3:forces:R:3 energy=-0.22080221486020463 pbc="F F F"
Yb       0.00000000       0.00000000       0.00000000       0.00000000       0.00000000       0.20460430
Yb       0.00000000       0.00000000       5.64727273       0.00000000       0.00000000      -0.20460430
2
Properties=species:S:1:pos:R:3:forces:R:3 energy=-0.2095315682345153 pbc="F F F"
Yb       0.00000000       0.00000000       0.00000000       0.00000000       0.00000000       0.18358386
Yb       0.00000000       0.00000000       5.70606061       0.00000000       0.00000000      -0.18358386
2
Properties=species:S:1:pos:R:3:forces:R:3 energy=-0.19862551377476226 pbc="F F F"
Yb       0.00000000       0.00000000       0.00000000       0.00000000       0.00000000       0.18947652
Yb       0.00000000       0.00000000       5.76484848       0.00000000       0.00000000      -0.18947652
2
Properties=species:S:1:pos:R:3:forces:R:3 energy=-0.187566923119529 pbc="F F F"
Yb       0.00000000       0.00000000       0.00000000       0.00000000       0.00000000       0.17976254
Yb       0.00000000       0.00000000       5.82363636       0.00000000       0.00000000      -0.17976254
2
Properties=species:S:1:pos:R:3:forces:R:3 energy=-0.17850639278154812 pbc="F F F"
Yb       0.00000000       0.00000000       0.00000000       0.00000000       0.00000000       0.12289383
Yb       0.00000000       0.00000000       5.88242424       0.00000000       0.00000000      -0.12289383
2
Properties=species:S:1:pos:R:3:forces:R:3 energy=-0.1732808006851323 pbc="F F F"
Yb       0.00000000       0.00000000       0.00000000       0.00000000       0.00000000       0.05753608
Yb       0.00000000       0.00000000       5.94121212       0.00000000       0.00000000      -0.05753608
2
Properties=species:S:1:pos:R:3:forces:R:3 energy=-0.1709597390467147 pbc="F F F"
Yb       0.00000000       0.00000000       0.00000000       0.00000000       0.00000000       0.03022114
Yb       0.00000000       0.00000000       6.00000000       0.00000000       0.00000000      -0.03022114
