2
Properties=species:S:1:pos:R:3:forces:R:3 energy=-626.3478801615994 pbc="F F F"
Zr       0.00000000       0.00000000       0.00000000       0.00000000       0.00000000 -102338.29687500
Zr       0.00000000       0.00000000       0.18000000       0.00000000       0.00000000  102338.29687500
2
Properties=species:S:1:pos:R:3:forces:R:3 energy=-4262.4153240092555 pbc="F F F"
Zr       0.00000000       0.00000000       0.00000000       0.00000000       0.00000000  -34863.00000000
Zr       0.00000000       0.00000000       0.23878788       0.00000000       0.00000000   34863.00000000
2
Properties=species:S:1:pos:R:3:forces:R:3 energy=-5545.6877849467555 pbc="F F F"
Zr       0.00000000       0.00000000       0.00000000       0.00000000       0.00000000  -12229.92968750
Zr       0.00000000       0.00000000       0.29757576       0.00000000       0.00000000   12229.92968750
2
Properties=species:S:1:pos:R:3:forces:R:3 energy=-5926.6550701030055 pbc="F F F"
Zr       0.00000000       0.00000000       0.00000000       0.00000000       0.00000000   -1738.68579102
Zr       0.00000000       0.00000000       0.35636364       0.00000000       0.00000000    1738.68579102
2
Properties=species:S:1:pos:R:3:forces:R:3 energy=-5815.65116384667 pbc="F F F"
Zr       0.00000000       0.00000000       0.00000000       0.00000000       0.00000000    5249.62060547
Zr       0.00000000       0.00000000       0.41515152       0.00000000       0.00000000   -5249.62060547
2
Properties=species:S:1:pos:R:3:forces:R:3 energy=-5324.357706809084 pbc="F F F"
Zr       0.00000000       0.00000000       0.00000000       0.00000000       0.00000000   11409.76953125
Zr       0.00000000       0.00000000       0.47393939       0.00000000       0.00000000  -11409.76953125
2
Properties=species:S:1:pos:R:3:forces:R:3 energy=-4481.851359140163 pbc="F F F"
Zr       0.00000000       0.00000000       0.00000000       0.00000000       0.00000000   17123.08789062
Zr       0.00000000       0.00000000       0.53272727       0.00000000       0.00000000  -17123.08789062
2
Properties=species:S:1:pos:R:3:forces:R:3 energy=-3342.0100505210703 pbc="F F F"
Zr       0.00000000       0.00000000       0.00000000       0.00000000       0.00000000   21221.28125000
Zr       0.00000000       0.00000000       0.59151515       0.00000000       0.00000000  -21221.28125000
2
Properties=species:S:1:pos:R:3:forces:R:3 energy=-2060.542521179846 pbc="F F F"
Zr       0.00000000       0.00000000       0.00000000       0.00000000       0.00000000   21574.38671875
Zr       0.00000000       0.00000000       0.65030303       0.00000000       0.00000000  -21574.38671875
2
Properties=species:S:1:pos:R:3:forces:R:3 energy=-907.4294229719583 pbc="F F F"
Zr       0.00000000       0.00000000       0.00000000       0.00000000       0.00000000   16834.00781250
Zr       0.00000000       0.00000000       0.70909091       0.00000000       0.00000000  -16834.00781250
2
Properties=species:S:1:pos:R:3:forces:R:3 energy=-149.0351510263377 pbc="F F F"
Zr       0.00000000       0.00000000       0.00000000       0.00000000       0.00000000    8749.99609375
Zr       0.00000000       0.00000000       0.76787879       0.00000000       0.00000000   -8749.99609375
2
Properties=species:S:1:pos:R:3:forces:R:3 energy=132.2023826950537 pbc="F F F"
Zr       0.00000000       0.00000000       0.00000000       0.00000000       0.00000000    1213.17309570
Zr       0.00000000       0.00000000       0.82666667       0.00000000       0.00000000   -1213.17309570
2
Properties=species:S:1:pos:R:3:forces:R:3 energy=142.71703134162996 pbc="F F F"
Zr       0.00000000       0.00000000       0.00000000       0.00000000       0.00000000    -893.88403320
Zr       0.00000000       0.00000000       0.88545455       0.00000000       0.00000000     893.88403320
2
Properties=species:S:1:pos:R:3:forces:R:3 energy=76.67078987281569 pbc="F F F"
Zr       0.00000000       0.00000000       0.00000000       0.00000000       0.00000000    -633.52685547
Zr       0.00000000       0.00000000       0.94424242       0.00000000       0.00000000     633.52685547
2
Properties=species:S:1:pos:R:3:forces:R:3 energy=62.35378129979331 pbc="F F F"
Zr       0.00000000       0.00000000       0.00000000       0.00000000       0.00000000      92.88280487
Zr       0.00000000       0.00000000       1.00303030       0.00000000       0.00000000     -92.88280487
2
Properties=species:S:1:pos:R:3:forces:R:3 energy=70.48612131586215 pbc="F F F"
Zr       0.00000000       0.00000000       0.00000000       0.00000000       0.00000000     130.97561646
Zr       0.00000000       0.00000000       1.06181818       0.00000000       0.00000000    -130.97561646
2
Properties=species:S:1:pos:R:3:forces:R:3 energy=74.34967794632871 pbc="F F F"
Zr       0.00000000       0.00000000       0.00000000       0.00000000       0.00000000     -13.39085197
Zr       0.00000000       0.00000000       1.12060606       0.00000000       0.00000000      13.39085197
2
Properties=species:S:1:pos:R:3:forces:R:3 energy=69.36396874629675 pbc="F F F"
Zr       0.00000000       0.00000000       0.00000000       0.00000000       0.00000000    -145.20736694
Zr       0.00000000       0.00000000       1.17939394       0.00000000       0.00000000     145.20736694
2
Properties=species:S:1:pos:R:3:forces:R:3 energy=58.74658791317991 pbc="F F F"
Zr       0.00000000       0.00000000       0.00000000       0.00000000       0.00000000    -204.22093201
Zr       0.00000000       0.00000000       1.23818182       0.00000000       0.00000000     204.22093201
2
Properties=species:S:1:pos:R:3:forces:R:3 energy=46.38120632355504 pbc="F F F"
Zr       0.00000000       0.00000000       0.00000000       0.00000000       0.00000000    -210.76516724
Zr       0.00000000       0.00000000       1.29696970       0.00000000       0.00000000     210.76516724
2
Properties=species:S:1:pos:R:3:forces:R:3 energy=34.42514215601298 pbc="F F F"
Zr       0.00000000       0.00000000       0.00000000       0.00000000       0.00000000    -193.11006165
Zr       0.00000000       0.00000000       1.35575758       0.00000000       0.00000000     193.11006165
2
Properties=species:S:1:pos:R:3:forces:R:3 energy=23.93768162947773 pbc="F F F"
Zr       0.00000000       0.00000000       0.00000000       0.00000000       0.00000000    -162.17402649
Zr       0.00000000       0.00000000       1.41454545       0.00000000       0.00000000     162.17402649
2
Properties=species:S:1:pos:R:3:forces:R:3 energy=15.43584411083455 pbc="F F F"
Zr       0.00000000       0.00000000       0.00000000       0.00000000       0.00000000    -127.19125366
Zr       0.00000000       0.00000000       1.47333333       0.00000000       0.00000000     127.19125366
2
Properties=species:S:1:pos:R:3:forces:R:3 energy=8.904708513099253 pbc="F F F"
Zr       0.00000000       0.00000000       0.00000000       0.00000000       0.00000000     -95.99066162
Zr       0.00000000       0.00000000       1.53212121       0.00000000       0.00000000      95.99066162
2
Properties=species:S:1:pos:R:3:forces:R:3 energy=4.025736780386046 pbc="F F F"
Zr       0.00000000       0.00000000       0.00000000       0.00000000       0.00000000     -71.01551056
Zr       0.00000000       0.00000000       1.59090909       0.00000000       0.00000000      71.01551056
2
Properties=species:S:1:pos:R:3:forces:R:3 energy=0.4441860799121061 pbc="F F F"
Zr       0.00000000       0.00000000       0.00000000       0.00000000       0.00000000     -51.71278763
Zr       0.00000000       0.00000000       1.64969697       0.00000000       0.00000000      51.71278763
2
Properties=species:S:1:pos:R:3:forces:R:3 energy=-2.1545818125030625 pbc="F F F"
Zr       0.00000000       0.00000000       0.00000000       0.00000000       0.00000000     -37.51685715
Zr       0.00000000       0.00000000       1.70848485       0.00000000       0.00000000      37.51685715
2
Properties=species:S:1:pos:R:3:forces:R:3 energy=-4.05368280900876 pbc="F F F"
Zr       0.00000000       0.00000000       0.00000000       0.00000000       0.00000000     -27.71428108
Zr       0.00000000       0.00000000       1.76727273       0.00000000       0.00000000      27.71428108
2
Properties=species:S:1:pos:R:3:forces:R:3 energy=-5.4695809879465225 pbc="F F F"
Zr       0.00000000       0.00000000       0.00000000       0.00000000       0.00000000     -20.80038452
Zr       0.00000000       0.00000000       1.82606061       0.00000000       0.00000000      20.80038452
2
Properties=species:S:1:pos:R:3:forces:R:3 energy=-6.5279863385020755 pbc="F F F"
Zr       0.00000000       0.00000000       0.00000000       0.00000000       0.00000000     -15.37828636
Zr       0.00000000       0.00000000       1.88484848       0.00000000       0.00000000      15.37828636
2
Properties=species:S:1:pos:R:3:forces:R:3 energy=-7.293486212999552 pbc="F F F"
Zr       0.00000000       0.00000000       0.00000000       0.00000000       0.00000000     -10.77961636
Zr       0.00000000       0.00000000       1.94363636       0.00000000       0.00000000      10.77961636
2
Properties=species:S:1:pos:R:3:forces:R:3 energy=-7.80868388876386 pbc="F F F"
Zr       0.00000000       0.00000000       0.00000000       0.00000000       0.00000000      -6.86507463
Zr       0.00000000       0.00000000       2.00242424       0.00000000       0.00000000       6.86507463
2
Properties=species:S:1:pos:R:3:forces:R:3 energy=-8.115514600596912 pbc="F F F"
Zr       0.00000000       0.00000000       0.00000000       0.00000000       0.00000000      -3.70962691
Zr       0.00000000       0.00000000       2.06121212       0.00000000       0.00000000       3.70962691
2
Properties=species:S:1:pos:R:3:forces:R:3 energy=-8.261776823683041 pbc="F F F"
Zr       0.00000000       0.00000000       0.00000000       0.00000000       0.00000000      -1.41525400
Zr       0.00000000       0.00000000       2.12000000       0.00000000       0.00000000       1.41525400
2
Properties=species:S:1:pos:R:3:forces:R:3 energy=-8.299168835569558 pbc="F F F"
Zr       0.00000000       0.00000000       0.00000000       0.00000000       0.00000000       0.00502252
Zr       0.00000000       0.00000000       2.17878788       0.00000000       0.00000000      -0.00502252
2
Properties=species:S:1:pos:R:3:forces:R:3 energy=-8.275281348160158 pbc="F F F"
Zr       0.00000000       0.00000000       0.00000000       0.00000000       0.00000000       0.71098071
Zr       0.00000000       0.00000000       2.23757576       0.00000000       0.00000000      -0.71098071
2
Properties=species:S:1:pos:R:3:forces:R:3 energy=-8.223890685740837 pbc="F F F"
Zr       0.00000000       0.00000000       0.00000000       0.00000000       0.00000000       0.99110883
Zr       0.00000000       0.00000000       2.29636364       0.00000000       0.00000000      -0.99110883
2
Properties=species:S:1:pos:R:3:forces:R:3 energy=-8.161963775461036 pbc="F F F"
Zr       0.00000000       0.00000000       0.00000000       0.00000000       0.00000000       1.10288262
Zr       0.00000000       0.00000000       2.35515152       0.00000000       0.00000000      -1.10288262
2
Properties=species:S:1:pos:R:3:forces:R:3 energy=-8.094719021170416 pbc="F F F"
Zr       0.00000000       0.00000000       0.00000000       0.00000000       0.00000000       1.18597245
Zr       0.00000000       0.00000000       2.41393939       0.00000000       0.00000000      -1.18597245
2
Properties=species:S:1:pos:R:3:forces:R:3 energy=-8.022116792076762 pbc="F F F"
Zr       0.00000000       0.00000000       0.00000000       0.00000000       0.00000000       1.28847957
Zr       0.00000000       0.00000000       2.47272727       0.00000000       0.00000000      -1.28847957
2
Properties=species:S:1:pos:R:3:forces:R:3 energy=-7.94271209093034 pbc="F F F"
Zr       0.00000000       0.00000000       0.00000000       0.00000000       0.00000000       1.41671431
Zr       0.00000000       0.00000000       2.53151515       0.00000000       0.00000000      -1.41671431
2
Properties=species:S:1:pos:R:3:forces:R:3 energy=-7.8551914632215425 pbc="F F F"
Zr       0.00000000       0.00000000       0.00000000       0.00000000       0.00000000       1.56289482
Zr       0.00000000       0.00000000       2.59030303       0.00000000       0.00000000      -1.56289482
2
Properties=species:S:1:pos:R:3:forces:R:3 energy=-7.758828992568601 pbc="F F F"
Zr       0.00000000       0.00000000       0.00000000       0.00000000       0.00000000       1.71544886
Zr       0.00000000       0.00000000       2.64909091       0.00000000       0.00000000      -1.71544886
2
Properties=species:S:1:pos:R:3:forces:R:3 energy=-7.653601384223897 pbc="F F F"
Zr       0.00000000       0.00000000       0.00000000       0.00000000       0.00000000       1.86268067
Zr       0.00000000       0.00000000       2.70787879       0.00000000       0.00000000      -1.86268067
2
Properties=species:S:1:pos:R:3:forces:R:3 energy=-7.540137671457737 pbc="F F F"
Zr       0.00000000       0.00000000       0.00000000       0.00000000       0.00000000       1.99385631
Zr       0.00000000       0.00000000       2.76666667       0.00000000       0.00000000      -1.99385631
2
Properties=species:S:1:pos:R:3:forces:R:3 energy=-7.419677786787283 pbc="F F F"
Zr       0.00000000       0.00000000       0.00000000       0.00000000       0.00000000       2.09919643
Zr       0.00000000       0.00000000       2.82545455       0.00000000       0.00000000      -2.09919643
2
Properties=species:S:1:pos:R:3:forces:R:3 energy=-7.294002825103386 pbc="F F F"
Zr       0.00000000       0.00000000       0.00000000       0.00000000       0.00000000       2.16990542
Zr       0.00000000       0.00000000       2.88424242       0.00000000       0.00000000      -2.16990542
2
Properties=species:S:1:pos:R:3:forces:R:3 energy=-7.165366884372854 pbc="F F F"
Zr       0.00000000       0.00000000       0.00000000       0.00000000       0.00000000       2.19899344
Zr       0.00000000       0.00000000       2.94303030       0.00000000       0.00000000      -2.19899344
2
Properties=species:S:1:pos:R:3:forces:R:3 energy=-7.036349066803164 pbc="F F F"
Zr       0.00000000       0.00000000       0.00000000       0.00000000       0.00000000       2.18264008
Zr       0.00000000       0.00000000       3.00181818       0.00000000       0.00000000      -2.18264008
2
Properties=species:S:1:pos:R:3:forces:R:3 energy=-6.909620097100582 pbc="F F F"
Zr       0.00000000       0.00000000       0.00000000       0.00000000       0.00000000       2.12169456
Zr       0.00000000       0.00000000       3.06060606       0.00000000       0.00000000      -2.12169456
2
Properties=species:S:1:pos:R:3:forces:R:3 energy=-6.787635214506424 pbc="F F F"
Zr       0.00000000       0.00000000       0.00000000       0.00000000       0.00000000       2.02292752
Zr       0.00000000       0.00000000       3.11939394       0.00000000       0.00000000      -2.02292752
2
Properties=species:S:1:pos:R:3:forces:R:3 energy=-6.67225190444564 pbc="F F F"
Zr       0.00000000       0.00000000       0.00000000       0.00000000       0.00000000       1.89995432
Zr       0.00000000       0.00000000       3.17818182       0.00000000       0.00000000      -1.89995432
2
Properties=species:S:1:pos:R:3:forces:R:3 energy=-6.564318450487034 pbc="F F F"
Zr       0.00000000       0.00000000       0.00000000       0.00000000       0.00000000       1.77346110
Zr       0.00000000       0.00000000       3.23696970       0.00000000       0.00000000      -1.77346110
2
Properties=species:S:1:pos:R:3:forces:R:3 energy=-6.463325923744719 pbc="F F F"
Zr       0.00000000       0.00000000       0.00000000       0.00000000       0.00000000       1.66766787
Zr       0.00000000       0.00000000       3.29575758       0.00000000       0.00000000      -1.66766787
2
Properties=species:S:1:pos:R:3:forces:R:3 energy=-6.367500449934811 pbc="F F F"
Zr       0.00000000       0.00000000       0.00000000       0.00000000       0.00000000       1.59888399
Zr       0.00000000       0.00000000       3.35454545       0.00000000       0.00000000      -1.59888399
2
Properties=species:S:1:pos:R:3:forces:R:3 energy=-6.274671702657578 pbc="F F F"
Zr       0.00000000       0.00000000       0.00000000       0.00000000       0.00000000       1.56341565
Zr       0.00000000       0.00000000       3.41333333       0.00000000       0.00000000      -1.56341565
2
Properties=species:S:1:pos:R:3:forces:R:3 energy=-6.183384871196122 pbc="F F F"
Zr       0.00000000       0.00000000       0.00000000       0.00000000       0.00000000       1.54320574
Zr       0.00000000       0.00000000       3.47212121       0.00000000       0.00000000      -1.54320574
2
Properties=species:S:1:pos:R:3:forces:R:3 energy=-6.09323415055333 pbc="F F F"
Zr       0.00000000       0.00000000       0.00000000       0.00000000       0.00000000       1.52305853
Zr       0.00000000       0.00000000       3.53090909       0.00000000       0.00000000      -1.52305853
2
Properties=species:S:1:pos:R:3:forces:R:3 energy=-6.004437172679881 pbc="F F F"
Zr       0.00000000       0.00000000       0.00000000       0.00000000       0.00000000       1.49655151
Zr       0.00000000       0.00000000       3.58969697       0.00000000       0.00000000      -1.49655151
2
Properties=species:S:1:pos:R:3:forces:R:3 energy=-5.917444122426103 pbc="F F F"
Zr       0.00000000       0.00000000       0.00000000       0.00000000       0.00000000       1.46145260
Zr       0.00000000       0.00000000       3.64848485       0.00000000       0.00000000      -1.46145260
2
Properties=species:S:1:pos:R:3:forces:R:3 energy=-5.832802894432906 pbc="F F F"
Zr       0.00000000       0.00000000       0.00000000       0.00000000       0.00000000       1.41636050
Zr       0.00000000       0.00000000       3.70727273       0.00000000       0.00000000      -1.41636050
2
Properties=species:S:1:pos:R:3:forces:R:3 energy=-5.751121669715356 pbc="F F F"
Zr       0.00000000       0.00000000       0.00000000       0.00000000       0.00000000       1.36073923
Zr       0.00000000       0.00000000       3.76606061       0.00000000       0.00000000      -1.36073923
2
Properties=species:S:1:pos:R:3:forces:R:3 energy=-5.672997871546541 pbc="F F F"
Zr       0.00000000       0.00000000       0.00000000       0.00000000       0.00000000       1.29571891
Zr       0.00000000       0.00000000       3.82484848       0.00000000       0.00000000      -1.29571891
2
Properties=species:S:1:pos:R:3:forces:R:3 energy=-5.598907013385381 pbc="F F F"
Zr       0.00000000       0.00000000       0.00000000       0.00000000       0.00000000       1.22406697
Zr       0.00000000       0.00000000       3.88363636       0.00000000       0.00000000      -1.22406697
2
Properties=species:S:1:pos:R:3:forces:R:3 energy=-5.5291342558843715 pbc="F F F"
Zr       0.00000000       0.00000000       0.00000000       0.00000000       0.00000000       1.14949024
Zr       0.00000000       0.00000000       3.94242424       0.00000000       0.00000000      -1.14949024
2
Properties=species:S:1:pos:R:3:forces:R:3 energy=-5.463740735570069 pbc="F F F"
Zr       0.00000000       0.00000000       0.00000000       0.00000000       0.00000000       1.07562828
Zr       0.00000000       0.00000000       4.00121212       0.00000000       0.00000000      -1.07562828
2
Properties=species:S:1:pos:R:3:forces:R:3 energy=-5.402594943749148 pbc="F F F"
Zr       0.00000000       0.00000000       0.00000000       0.00000000       0.00000000       1.00537765
Zr       0.00000000       0.00000000       4.06000000       0.00000000       0.00000000      -1.00537765
2
Properties=species:S:1:pos:R:3:forces:R:3 energy=-5.345425658440926 pbc="F F F"
Zr       0.00000000       0.00000000       0.00000000       0.00000000       0.00000000       0.94057471
Zr       0.00000000       0.00000000       4.11878788       0.00000000       0.00000000      -0.94057471
2
Properties=species:S:1:pos:R:3:forces:R:3 energy=-5.291882342641517 pbc="F F F"
Zr       0.00000000       0.00000000       0.00000000       0.00000000       0.00000000       0.88207448
Zr       0.00000000       0.00000000       4.17757576       0.00000000       0.00000000      -0.88207448
2
Properties=species:S:1:pos:R:3:forces:R:3 energy=-5.2415888668677635 pbc="F F F"
Zr       0.00000000       0.00000000       0.00000000       0.00000000       0.00000000       0.82995445
Zr       0.00000000       0.00000000       4.23636364       0.00000000       0.00000000      -0.82995445
2
Properties=species:S:1:pos:R:3:forces:R:3 energy=-5.194182050603675 pbc="F F F"
Zr       0.00000000       0.00000000       0.00000000       0.00000000       0.00000000       0.78375936
Zr       0.00000000       0.00000000       4.29515152       0.00000000       0.00000000      -0.78375936
2
Properties=species:S:1:pos:R:3:forces:R:3 energy=-5.149337671268386 pbc="F F F"
Zr       0.00000000       0.00000000       0.00000000       0.00000000       0.00000000       0.74270523
Zr       0.00000000       0.00000000       4.35393939       0.00000000       0.00000000      -0.74270523
2
Properties=species:S:1:pos:R:3:forces:R:3 energy=-5.106778494420117 pbc="F F F"
Zr       0.00000000       0.00000000       0.00000000       0.00000000       0.00000000       0.70578599
Zr       0.00000000       0.00000000       4.41272727       0.00000000       0.00000000      -0.70578599
2
Properties=species:S:1:pos:R:3:forces:R:3 energy=-5.0662942565673035 pbc="F F F"
Zr       0.00000000       0.00000000       0.00000000       0.00000000       0.00000000       0.67188954
Zr       0.00000000       0.00000000       4.47151515       0.00000000       0.00000000      -0.67188954
2
Properties=species:S:1:pos:R:3:forces:R:3 energy=-5.027742865933049 pbc="F F F"
Zr       0.00000000       0.00000000       0.00000000       0.00000000       0.00000000       0.63987041
Zr       0.00000000       0.00000000       4.53030303       0.00000000       0.00000000      -0.63987041
2
Properties=species:S:1:pos:R:3:forces:R:3 energy=-4.991046347003365 pbc="F F F"
Zr       0.00000000       0.00000000       0.00000000       0.00000000       0.00000000       0.60862941
Zr       0.00000000       0.00000000       4.58909091       0.00000000       0.00000000      -0.60862941
2
Properties=species:S:1:pos:R:3:forces:R:3 energy=-4.956187127200223 pbc="F F F"
Zr       0.00000000       0.00000000       0.00000000       0.00000000       0.00000000       0.57720506
Zr       0.00000000       0.00000000       4.64787879       0.00000000       0.00000000      -0.57720506
2
Properties=species:S:1:pos:R:3:forces:R:3 energy=-4.923199358778037 pbc="F F F"
Zr       0.00000000       0.00000000       0.00000000       0.00000000       0.00000000       0.54481500
Zr       0.00000000       0.00000000       4.70666667       0.00000000       0.00000000      -0.54481500
2
Properties=species:S:1:pos:R:3:forces:R:3 energy=-4.8921588799007685 pbc="F F F"
Zr       0.00000000       0.00000000       0.00000000       0.00000000       0.00000000       0.51095295
Zr       0.00000000       0.00000000       4.76545455       0.00000000       0.00000000      -0.51095295
2
Properties=species:S:1:pos:R:3:forces:R:3 energy=-4.863156378712533 pbc="F F F"
Zr       0.00000000       0.00000000       0.00000000       0.00000000       0.00000000       0.47542289
Zr       0.00000000       0.00000000       4.82424242       0.00000000       0.00000000      -0.47542289
2
Properties=species:S:1:pos:R:3:forces:R:3 energy=-4.836291169111968 pbc="F F F"
Zr       0.00000000       0.00000000       0.00000000       0.00000000       0.00000000       0.43842745
Zr       0.00000000       0.00000000       4.88303030       0.00000000       0.00000000      -0.43842745
2
Properties=species:S:1:pos:R:3:forces:R:3 energy=-4.811624734807269 pbc="F F F"
Zr       0.00000000       0.00000000       0.00000000       0.00000000       0.00000000       0.40064615
Zr       0.00000000       0.00000000       4.94181818       0.00000000       0.00000000      -0.40064615
2
Properties=species:S:1:pos:R:3:forces:R:3 energy=-4.789173983903889 pbc="F F F"
Zr       0.00000000       0.00000000       0.00000000       0.00000000       0.00000000       0.36331373
Zr       0.00000000       0.00000000       5.00060606       0.00000000       0.00000000      -0.36331373
2
Properties=species:S:1:pos:R:3:forces:R:3 energy=-4.768863997676364 pbc="F F F"
Zr       0.00000000       0.00000000       0.00000000       0.00000000       0.00000000       0.32814768
Zr       0.00000000       0.00000000       5.05939394       0.00000000       0.00000000      -0.32814768
2
Properties=species:S:1:pos:R:3:forces:R:3 energy=-4.750512467668328 pbc="F F F"
Zr       0.00000000       0.00000000       0.00000000       0.00000000       0.00000000       0.29700214
Zr       0.00000000       0.00000000       5.11818182       0.00000000       0.00000000      -0.29700214
2
Properties=species:S:1:pos:R:3:forces:R:3 energy=-4.733839238771315 pbc="F F F"
Zr       0.00000000       0.00000000       0.00000000       0.00000000       0.00000000       0.27121744
Zr       0.00000000       0.00000000       5.17696970       0.00000000       0.00000000      -0.27121744
2
Properties=species:S:1:pos:R:3:forces:R:3 energy=-4.718520033432536 pbc="F F F"
Zr       0.00000000       0.00000000       0.00000000       0.00000000       0.00000000       0.25073665
Zr       0.00000000       0.00000000       5.23575758       0.00000000       0.00000000      -0.25073665
2
Properties=species:S:1:pos:R:3:forces:R:3 energy=-4.704296048173529 pbc="F F F"
Zr       0.00000000       0.00000000       0.00000000       0.00000000       0.00000000       0.23344287
Zr       0.00000000       0.00000000       5.29454545       0.00000000       0.00000000      -0.23344287
2
Properties=species:S:1:pos:R:3:forces:R:3 energy=-4.691075405863262 pbc="F F F"
Zr       0.00000000       0.00000000       0.00000000       0.00000000       0.00000000       0.21607332
Zr       0.00000000       0.00000000       5.35333333       0.00000000       0.00000000      -0.21607332
2
Properties=species:S:1:pos:R:3:forces:R:3 energy=-4.678902028254315 pbc="F F F"
Zr       0.00000000       0.00000000       0.00000000       0.00000000       0.00000000       0.19831525
Zr       0.00000000       0.00000000       5.41212121       0.00000000       0.00000000      -0.19831525
2
Properties=species:S:1:pos:R:3:forces:R:3 energy=-4.667659551785865 pbc="F F F"
Zr       0.00000000       0.00000000       0.00000000       0.00000000       0.00000000       0.18536906
Zr       0.00000000       0.00000000       5.47090909       0.00000000       0.00000000      -0.18536906
2
Properties=species:S:1:pos:R:3:forces:R:3 energy=-4.6570220929791395 pbc="F F F"
Zr       0.00000000       0.00000000       0.00000000       0.00000000       0.00000000       0.17623313
Zr       0.00000000       0.00000000       5.52969697       0.00000000       0.00000000      -0.17623313
2
Properties=species:S:1:pos:R:3:forces:R:3 energy=-4.647081263957888 pbc="F F F"
Zr       0.00000000       0.00000000       0.00000000       0.00000000       0.00000000       0.16043614
Zr       0.00000000       0.00000000       5.58848485       0.00000000       0.00000000      -0.16043614
2
Properties=species:S:1:pos:R:3:forces:R:3 energy=-4.638270933547684 pbc="F F F"
Zr       0.00000000       0.00000000       0.00000000       0.00000000       0.00000000       0.13928293
Zr       0.00000000       0.00000000       5.64727273       0.00000000       0.00000000      -0.13928293
2
Properties=species:S:1:pos:R:3:forces:R:3 energy=-4.630572149663878 pbc="F F F"
Zr       0.00000000       0.00000000       0.00000000       0.00000000       0.00000000       0.12492329
Zr       0.00000000       0.00000000       5.70606061       0.00000000       0.00000000      -0.12492329
2
Properties=species:S:1:pos:R:3:forces:R:3 energy=-4.623303944015495 pbc="F F F"
Zr       0.00000000       0.00000000       0.00000000       0.00000000       0.00000000       0.12306944
Zr       0.00000000       0.00000000       5.76484848       0.00000000       0.00000000      -0.12306944
2
Properties=species:S:1:pos:R:3:forces:R:3 energy=-4.616275437203723 pbc="F F F"
Zr       0.00000000       0.00000000       0.00000000       0.00000000       0.00000000       0.11250890
Zr       0.00000000       0.00000000       5.82363636       0.00000000       0.00000000      -0.11250890
2
Properties=species:S:1:pos:R:3:forces:R:3 energy=-4.610572518662634 pbc="F F F"
Zr       0.00000000       0.00000000       0.00000000       0.00000000       0.00000000       0.07903806
Zr       0.00000000       0.00000000       5.88242424       0.00000000       0.00000000      -0.07903806
2
Properties=species:S:1:pos:R:3:forces:R:3 energy=-4.6070244777425815 pbc="F F F"
Zr       0.00000000       0.00000000       0.00000000       0.00000000       0.00000000       0.04326549
Zr       0.00000000       0.00000000       5.94121212       0.00000000       0.00000000      -0.04326549
2
Properties=species:S:1:pos:R:3:forces:R:3 energy=-4.6050610630558495 pbc="F F F"
Zr       0.00000000       0.00000000       0.00000000       0.00000000       0.00000000       0.02814879
Zr       0.00000000       0.00000000       6.00000000       0.00000000       0.00000000      -0.02814879
