2
Properties=species:S:1:pos:R:3:forces:R:3 energy=1027.9990388938286 pbc="F F F"
B        0.00000000       0.00000000       0.00000000       0.00000000       0.00000000  -17150.28906250
B        0.00000000       0.00000000       0.10000000       0.00000000       0.00000000   17150.28906250
2
Properties=species:S:1:pos:R:3:forces:R:3 energy=466.26115437234415 pbc="F F F"
B        0.00000000       0.00000000       0.00000000       0.00000000       0.00000000   -4873.28759766
B        0.00000000       0.00000000       0.15959596       0.00000000       0.00000000    4873.28759766
2
Properties=species:S:1:pos:R:3:forces:R:3 energy=284.1537630149223 pbc="F F F"
B        0.00000000       0.00000000       0.00000000       0.00000000       0.00000000   -1813.87512207
B        0.00000000       0.00000000       0.21919192       0.00000000       0.00000000    1813.87512207
2
Properties=species:S:1:pos:R:3:forces:R:3 energy=213.0005495155296 pbc="F F F"
B        0.00000000       0.00000000       0.00000000       0.00000000       0.00000000    -774.12921143
B        0.00000000       0.00000000       0.27878788       0.00000000       0.00000000     774.12921143
2
Properties=species:S:1:pos:R:3:forces:R:3 energy=175.3447725443262 pbc="F F F"
B        0.00000000       0.00000000       0.00000000       0.00000000       0.00000000    -593.24780273
B        0.00000000       0.00000000       0.33838384       0.00000000       0.00000000     593.24780273
2
Properties=species:S:1:pos:R:3:forces:R:3 energy=134.3989260009642 pbc="F F F"
B        0.00000000       0.00000000       0.00000000       0.00000000       0.00000000    -759.83209229
B        0.00000000       0.00000000       0.39797980       0.00000000       0.00000000     759.83209229
2
Properties=species:S:1:pos:R:3:forces:R:3 energy=94.61621118572461 pbc="F F F"
B        0.00000000       0.00000000       0.00000000       0.00000000       0.00000000    -520.96423340
B        0.00000000       0.00000000       0.45757576       0.00000000       0.00000000     520.96423340
2
Properties=species:S:1:pos:R:3:forces:R:3 energy=71.90943938740773 pbc="F F F"
B        0.00000000       0.00000000       0.00000000       0.00000000       0.00000000    -309.32510376
B        0.00000000       0.00000000       0.51717172       0.00000000       0.00000000     309.32510376
2
Properties=species:S:1:pos:R:3:forces:R:3 energy=54.72654763515536 pbc="F F F"
B        0.00000000       0.00000000       0.00000000       0.00000000       0.00000000    -265.50067139
B        0.00000000       0.00000000       0.57676768       0.00000000       0.00000000     265.50067139
2
Properties=species:S:1:pos:R:3:forces:R:3 energy=40.8962674911753 pbc="F F F"
B        0.00000000       0.00000000       0.00000000       0.00000000       0.00000000    -182.97961426
B        0.00000000       0.00000000       0.63636364       0.00000000       0.00000000     182.97961426
2
Properties=species:S:1:pos:R:3:forces:R:3 energy=37.346661419774975 pbc="F F F"
B        0.00000000       0.00000000       0.00000000       0.00000000       0.00000000      55.57713699
B        0.00000000       0.00000000       0.69595960       0.00000000       0.00000000     -55.57713699
2
Properties=species:S:1:pos:R:3:forces:R:3 energy=39.8361523184503 pbc="F F F"
B        0.00000000       0.00000000       0.00000000       0.00000000       0.00000000     -23.84826279
B        0.00000000       0.00000000       0.75555556       0.00000000       0.00000000      23.84826279
2
Properties=species:S:1:pos:R:3:forces:R:3 energy=33.171533455528795 pbc="F F F"
B        0.00000000       0.00000000       0.00000000       0.00000000       0.00000000    -178.53315735
B        0.00000000       0.00000000       0.81515152       0.00000000       0.00000000     178.53315735
2
Properties=species:S:1:pos:R:3:forces:R:3 energy=21.576153515088432 pbc="F F F"
B        0.00000000       0.00000000       0.00000000       0.00000000       0.00000000    -187.93849182
B        0.00000000       0.00000000       0.87474747       0.00000000       0.00000000     187.93849182
2
Properties=species:S:1:pos:R:3:forces:R:3 energy=12.441691395947862 pbc="F F F"
B        0.00000000       0.00000000       0.00000000       0.00000000       0.00000000    -116.97675323
B        0.00000000       0.00000000       0.93434343       0.00000000       0.00000000     116.97675323
2
Properties=species:S:1:pos:R:3:forces:R:3 energy=7.012439465029343 pbc="F F F"
B        0.00000000       0.00000000       0.00000000       0.00000000       0.00000000     -71.25838470
B        0.00000000       0.00000000       0.99393939       0.00000000       0.00000000      71.25838470
2
Properties=species:S:1:pos:R:3:forces:R:3 energy=3.4875307746929316 pbc="F F F"
B        0.00000000       0.00000000       0.00000000       0.00000000       0.00000000     -49.14142609
B        0.00000000       0.00000000       1.05353535       0.00000000       0.00000000      49.14142609
2
Properties=species:S:1:pos:R:3:forces:R:3 energy=1.0046929839218248 pbc="F F F"
B        0.00000000       0.00000000       0.00000000       0.00000000       0.00000000     -34.99763489
B        0.00000000       0.00000000       1.11313131       0.00000000       0.00000000      34.99763489
2
Properties=species:S:1:pos:R:3:forces:R:3 energy=-0.7604913178130863 pbc="F F F"
B        0.00000000       0.00000000       0.00000000       0.00000000       0.00000000     -24.77383614
B        0.00000000       0.00000000       1.17272727       0.00000000       0.00000000      24.77383614
2
Properties=species:S:1:pos:R:3:forces:R:3 energy=-2.0028788003630544 pbc="F F F"
B        0.00000000       0.00000000       0.00000000       0.00000000       0.00000000     -17.31167412
B        0.00000000       0.00000000       1.23232323       0.00000000       0.00000000      17.31167412
2
Properties=species:S:1:pos:R:3:forces:R:3 energy=-2.8634879233236914 pbc="F F F"
B        0.00000000       0.00000000       0.00000000       0.00000000       0.00000000     -11.84788609
B        0.00000000       0.00000000       1.29191919       0.00000000       0.00000000      11.84788609
2
Properties=species:S:1:pos:R:3:forces:R:3 energy=-3.4428556280090397 pbc="F F F"
B        0.00000000       0.00000000       0.00000000       0.00000000       0.00000000      -7.79037857
B        0.00000000       0.00000000       1.35151515       0.00000000       0.00000000       7.79037857
2
Properties=species:S:1:pos:R:3:forces:R:3 energy=-3.811913709430179 pbc="F F F"
B        0.00000000       0.00000000       0.00000000       0.00000000       0.00000000      -4.73922539
B        0.00000000       0.00000000       1.41111111       0.00000000       0.00000000       4.73922539
2
Properties=species:S:1:pos:R:3:forces:R:3 energy=-4.0230421898941895 pbc="F F F"
B        0.00000000       0.00000000       0.00000000       0.00000000       0.00000000      -2.46130657
B        0.00000000       0.00000000       1.47070707       0.00000000       0.00000000       2.46130657
2
Properties=species:S:1:pos:R:3:forces:R:3 energy=-4.117671048980745 pbc="F F F"
B        0.00000000       0.00000000       0.00000000       0.00000000       0.00000000      -0.80778033
B        0.00000000       0.00000000       1.53030303       0.00000000       0.00000000       0.80778033
2
Properties=species:S:1:pos:R:3:forces:R:3 energy=-4.129293394646826 pbc="F F F"
B        0.00000000       0.00000000       0.00000000       0.00000000       0.00000000       0.34346291
B        0.00000000       0.00000000       1.58989899       0.00000000       0.00000000      -0.34346291
2
Properties=species:S:1:pos:R:3:forces:R:3 energy=-4.084513585986636 pbc="F F F"
B        0.00000000       0.00000000       0.00000000       0.00000000       0.00000000       1.10275614
B        0.00000000       0.00000000       1.64949495       0.00000000       0.00000000      -1.10275614
2
Properties=species:S:1:pos:R:3:forces:R:3 energy=-4.003580963491421 pbc="F F F"
B        0.00000000       0.00000000       0.00000000       0.00000000       0.00000000       1.57407868
B        0.00000000       0.00000000       1.70909091       0.00000000       0.00000000      -1.57407868
2
Properties=species:S:1:pos:R:3:forces:R:3 energy=-3.900575617824728 pbc="F F F"
B        0.00000000       0.00000000       0.00000000       0.00000000       0.00000000       1.85931504
B        0.00000000       0.00000000       1.76868687       0.00000000       0.00000000      -1.85931504
2
Properties=species:S:1:pos:R:3:forces:R:3 energy=-3.7840022244763074 pbc="F F F"
B        0.00000000       0.00000000       0.00000000       0.00000000       0.00000000       2.04123449
B        0.00000000       0.00000000       1.82828283       0.00000000       0.00000000      -2.04123449
2
Properties=species:S:1:pos:R:3:forces:R:3 energy=-3.6581645071332876 pbc="F F F"
B        0.00000000       0.00000000       0.00000000       0.00000000       0.00000000       2.17721725
B        0.00000000       0.00000000       1.88787879       0.00000000       0.00000000      -2.17721725
2
Properties=species:S:1:pos:R:3:forces:R:3 energy=-3.5248534112540617 pbc="F F F"
B        0.00000000       0.00000000       0.00000000       0.00000000       0.00000000       2.29444957
B        0.00000000       0.00000000       1.94747475       0.00000000       0.00000000      -2.29444957
2
Properties=species:S:1:pos:R:3:forces:R:3 energy=-3.3849204225102003 pbc="F F F"
B        0.00000000       0.00000000       0.00000000       0.00000000       0.00000000       2.40012813
B        0.00000000       0.00000000       2.00707071       0.00000000       0.00000000      -2.40012813
2
Properties=species:S:1:pos:R:3:forces:R:3 energy=-3.238840599480633 pbc="F F F"
B        0.00000000       0.00000000       0.00000000       0.00000000       0.00000000       2.50245214
B        0.00000000       0.00000000       2.06666667       0.00000000       0.00000000      -2.50245214
2
Properties=species:S:1:pos:R:3:forces:R:3 energy=-3.086700729457621 pbc="F F F"
B        0.00000000       0.00000000       0.00000000       0.00000000       0.00000000       2.60107899
B        0.00000000       0.00000000       2.12626263       0.00000000       0.00000000      -2.60107899
2
Properties=species:S:1:pos:R:3:forces:R:3 energy=-2.9292956401548165 pbc="F F F"
B        0.00000000       0.00000000       0.00000000       0.00000000       0.00000000       2.67581606
B        0.00000000       0.00000000       2.18585859       0.00000000       0.00000000      -2.67581606
2
Properties=species:S:1:pos:R:3:forces:R:3 energy=-2.7684943209439137 pbc="F F F"
B        0.00000000       0.00000000       0.00000000       0.00000000       0.00000000       2.71415854
B        0.00000000       0.00000000       2.24545455       0.00000000       0.00000000      -2.71415854
2
Properties=species:S:1:pos:R:3:forces:R:3 energy=-2.6065670167108923 pbc="F F F"
B        0.00000000       0.00000000       0.00000000       0.00000000       0.00000000       2.71344972
B        0.00000000       0.00000000       2.30505051       0.00000000       0.00000000      -2.71344972
2
Properties=species:S:1:pos:R:3:forces:R:3 energy=-2.4458585087058413 pbc="F F F"
B        0.00000000       0.00000000       0.00000000       0.00000000       0.00000000       2.67328262
B        0.00000000       0.00000000       2.36464646       0.00000000       0.00000000      -2.67328262
2
Properties=species:S:1:pos:R:3:forces:R:3 energy=-2.288696323041129 pbc="F F F"
B        0.00000000       0.00000000       0.00000000       0.00000000       0.00000000       2.59479141
B        0.00000000       0.00000000       2.42424242       0.00000000       0.00000000      -2.59479141
2
Properties=species:S:1:pos:R:3:forces:R:3 energy=-2.1372656604583167 pbc="F F F"
B        0.00000000       0.00000000       0.00000000       0.00000000       0.00000000       2.48188090
B        0.00000000       0.00000000       2.48383838       0.00000000       0.00000000      -2.48188090
2
Properties=species:S:1:pos:R:3:forces:R:3 energy=-1.993426651994627 pbc="F F F"
B        0.00000000       0.00000000       0.00000000       0.00000000       0.00000000       2.34135866
B        0.00000000       0.00000000       2.54343434       0.00000000       0.00000000      -2.34135866
2
Properties=species:S:1:pos:R:3:forces:R:3 energy=-1.8585715404959726 pbc="F F F"
B        0.00000000       0.00000000       0.00000000       0.00000000       0.00000000       2.18185830
B        0.00000000       0.00000000       2.60303030       0.00000000       0.00000000      -2.18185830
2
Properties=species:S:1:pos:R:3:forces:R:3 energy=-1.7335646173427057 pbc="F F F"
B        0.00000000       0.00000000       0.00000000       0.00000000       0.00000000       2.01231217
B        0.00000000       0.00000000       2.66262626       0.00000000       0.00000000      -2.01231217
2
Properties=species:S:1:pos:R:3:forces:R:3 energy=-1.6187612400994353 pbc="F F F"
B        0.00000000       0.00000000       0.00000000       0.00000000       0.00000000       1.84064043
B        0.00000000       0.00000000       2.72222222       0.00000000       0.00000000      -1.84064043
2
Properties=species:S:1:pos:R:3:forces:R:3 energy=-1.514093278073337 pbc="F F F"
B        0.00000000       0.00000000       0.00000000       0.00000000       0.00000000       1.67303216
B        0.00000000       0.00000000       2.78181818       0.00000000       0.00000000      -1.67303216
2
Properties=species:S:1:pos:R:3:forces:R:3 energy=-1.4191821792455621 pbc="F F F"
B        0.00000000       0.00000000       0.00000000       0.00000000       0.00000000       1.51376307
B        0.00000000       0.00000000       2.84141414       0.00000000       0.00000000      -1.51376307
2
Properties=species:S:1:pos:R:3:forces:R:3 energy=-1.3334482043303661 pbc="F F F"
B        0.00000000       0.00000000       0.00000000       0.00000000       0.00000000       1.36542976
B        0.00000000       0.00000000       2.90101010       0.00000000       0.00000000      -1.36542976
2
Properties=species:S:1:pos:R:3:forces:R:3 energy=-1.2561915757911528 pbc="F F F"
B        0.00000000       0.00000000       0.00000000       0.00000000       0.00000000       1.22931051
B        0.00000000       0.00000000       2.96060606       0.00000000       0.00000000      -1.22931051
2
Properties=species:S:1:pos:R:3:forces:R:3 energy=-1.1866723999175808 pbc="F F F"
B        0.00000000       0.00000000       0.00000000       0.00000000       0.00000000       1.10578537
B        0.00000000       0.00000000       3.02020202       0.00000000       0.00000000      -1.10578537
2
Properties=species:S:1:pos:R:3:forces:R:3 energy=-1.12414529254046 pbc="F F F"
B        0.00000000       0.00000000       0.00000000       0.00000000       0.00000000       0.99461508
B        0.00000000       0.00000000       3.07979798       0.00000000       0.00000000      -0.99461508
2
Properties=species:S:1:pos:R:3:forces:R:3 energy=-1.0678898217500994 pbc="F F F"
B        0.00000000       0.00000000       0.00000000       0.00000000       0.00000000       0.89516383
B        0.00000000       0.00000000       3.13939394       0.00000000       0.00000000      -0.89516383
2
Properties=species:S:1:pos:R:3:forces:R:3 energy=-1.017233842406788 pbc="F F F"
B        0.00000000       0.00000000       0.00000000       0.00000000       0.00000000       0.80652761
B        0.00000000       0.00000000       3.19898990       0.00000000       0.00000000      -0.80652761
2
Properties=species:S:1:pos:R:3:forces:R:3 energy=-0.9715645762690789 pbc="F F F"
B        0.00000000       0.00000000       0.00000000       0.00000000       0.00000000       0.72763079
B        0.00000000       0.00000000       3.25858586       0.00000000       0.00000000      -0.72763079
2
Properties=species:S:1:pos:R:3:forces:R:3 energy=-0.9303359217743187 pbc="F F F"
B        0.00000000       0.00000000       0.00000000       0.00000000       0.00000000       0.65730578
B        0.00000000       0.00000000       3.31818182       0.00000000       0.00000000      -0.65730578
2
Properties=species:S:1:pos:R:3:forces:R:3 energy=-0.893072401032449 pbc="F F F"
B        0.00000000       0.00000000       0.00000000       0.00000000       0.00000000       0.59437811
B        0.00000000       0.00000000       3.37777778       0.00000000       0.00000000      -0.59437811
2
Properties=species:S:1:pos:R:3:forces:R:3 energy=-0.8593661700903021 pbc="F F F"
B        0.00000000       0.00000000       0.00000000       0.00000000       0.00000000       0.53774309
B        0.00000000       0.00000000       3.43737374       0.00000000       0.00000000      -0.53774309
2
Properties=species:S:1:pos:R:3:forces:R:3 energy=-0.8288717044467319 pbc="F F F"
B        0.00000000       0.00000000       0.00000000       0.00000000       0.00000000       0.48643970
B        0.00000000       0.00000000       3.49696970       0.00000000       0.00000000      -0.48643970
2
Properties=species:S:1:pos:R:3:forces:R:3 energy=-0.801295593403093 pbc="F F F"
B        0.00000000       0.00000000       0.00000000       0.00000000       0.00000000       0.43970302
B        0.00000000       0.00000000       3.55656566       0.00000000       0.00000000      -0.43970302
2
Properties=species:S:1:pos:R:3:forces:R:3 energy=-0.7763830080569487 pbc="F F F"
B        0.00000000       0.00000000       0.00000000       0.00000000       0.00000000       0.39697984
B        0.00000000       0.00000000       3.61616162       0.00000000       0.00000000      -0.39697984
2
Properties=species:S:1:pos:R:3:forces:R:3 energy=-0.753906432688369 pbc="F F F"
B        0.00000000       0.00000000       0.00000000       0.00000000       0.00000000       0.35791272
B        0.00000000       0.00000000       3.67575758       0.00000000       0.00000000      -0.35791272
2
Properties=species:S:1:pos:R:3:forces:R:3 energy=-0.7336543117829829 pbc="F F F"
B        0.00000000       0.00000000       0.00000000       0.00000000       0.00000000       0.32229194
B        0.00000000       0.00000000       3.73535354       0.00000000       0.00000000      -0.32229194
2
Properties=species:S:1:pos:R:3:forces:R:3 energy=-0.7154253674158401 pbc="F F F"
B        0.00000000       0.00000000       0.00000000       0.00000000       0.00000000       0.29000074
B        0.00000000       0.00000000       3.79494949       0.00000000       0.00000000      -0.29000074
2
Properties=species:S:1:pos:R:3:forces:R:3 energy=-0.6990242152661685 pbc="F F F"
B        0.00000000       0.00000000       0.00000000       0.00000000       0.00000000       0.26093969
B        0.00000000       0.00000000       3.85454545       0.00000000       0.00000000      -0.26093969
2
Properties=species:S:1:pos:R:3:forces:R:3 energy=-0.684261972167159 pbc="F F F"
B        0.00000000       0.00000000       0.00000000       0.00000000       0.00000000       0.23498079
B        0.00000000       0.00000000       3.91414141       0.00000000       0.00000000      -0.23498079
2
Properties=species:S:1:pos:R:3:forces:R:3 energy=-0.6709587494136029 pbc="F F F"
B        0.00000000       0.00000000       0.00000000       0.00000000       0.00000000       0.21192533
B        0.00000000       0.00000000       3.97373737       0.00000000       0.00000000      -0.21192533
2
Properties=species:S:1:pos:R:3:forces:R:3 energy=-0.6589498700679056 pbc="F F F"
B        0.00000000       0.00000000       0.00000000       0.00000000       0.00000000       0.19150560
B        0.00000000       0.00000000       4.03333333       0.00000000       0.00000000      -0.19150560
2
Properties=species:S:1:pos:R:3:forces:R:3 energy=-0.6480871398725397 pbc="F F F"
B        0.00000000       0.00000000       0.00000000       0.00000000       0.00000000       0.17338933
B        0.00000000       0.00000000       4.09292929       0.00000000       0.00000000      -0.17338933
2
Properties=species:S:1:pos:R:3:forces:R:3 energy=-0.6382446199810974 pbc="F F F"
B        0.00000000       0.00000000       0.00000000       0.00000000       0.00000000       0.15721117
B        0.00000000       0.00000000       4.15252525       0.00000000       0.00000000      -0.15721117
2
Properties=species:S:1:pos:R:3:forces:R:3 energy=-0.6293175978402187 pbc="F F F"
B        0.00000000       0.00000000       0.00000000       0.00000000       0.00000000       0.14261198
B        0.00000000       0.00000000       4.21212121       0.00000000       0.00000000      -0.14261198
2
Properties=species:S:1:pos:R:3:forces:R:3 energy=-0.6212214687485607 pbc="F F F"
B        0.00000000       0.00000000       0.00000000       0.00000000       0.00000000       0.12926786
B        0.00000000       0.00000000       4.27171717       0.00000000       0.00000000      -0.12926786
2
Properties=species:S:1:pos:R:3:forces:R:3 energy=-0.6138901136521207 pbc="F F F"
B        0.00000000       0.00000000       0.00000000       0.00000000       0.00000000       0.11692485
B        0.00000000       0.00000000       4.33131313       0.00000000       0.00000000      -0.11692485
2
Properties=species:S:1:pos:R:3:forces:R:3 energy=-0.6072686509282602 pbc="F F F"
B        0.00000000       0.00000000       0.00000000       0.00000000       0.00000000       0.10541285
B        0.00000000       0.00000000       4.39090909       0.00000000       0.00000000      -0.10541285
2
Properties=species:S:1:pos:R:3:forces:R:3 energy=-0.6013106880284216 pbc="F F F"
B        0.00000000       0.00000000       0.00000000       0.00000000       0.00000000       0.09465878
B        0.00000000       0.00000000       4.45050505       0.00000000       0.00000000      -0.09465878
2
Properties=species:S:1:pos:R:3:forces:R:3 energy=-0.5959709342539738 pbc="F F F"
B        0.00000000       0.00000000       0.00000000       0.00000000       0.00000000       0.08467611
B        0.00000000       0.00000000       4.51010101       0.00000000       0.00000000      -0.08467611
2
Properties=species:S:1:pos:R:3:forces:R:3 energy=-0.5912007937642976 pbc="F F F"
B        0.00000000       0.00000000       0.00000000       0.00000000       0.00000000       0.07555166
B        0.00000000       0.00000000       4.56969697       0.00000000       0.00000000      -0.07555166
2
Properties=species:S:1:pos:R:3:forces:R:3 energy=-0.586945878604791 pbc="F F F"
B        0.00000000       0.00000000       0.00000000       0.00000000       0.00000000       0.06741986
B        0.00000000       0.00000000       4.62929293       0.00000000       0.00000000      -0.06741986
2
Properties=species:S:1:pos:R:3:forces:R:3 energy=-0.5831426421283841 pbc="F F F"
B        0.00000000       0.00000000       0.00000000       0.00000000       0.00000000       0.06041826
B        0.00000000       0.00000000       4.68888889       0.00000000       0.00000000      -0.06041826
2
Properties=species:S:1:pos:R:3:forces:R:3 energy=-0.5797200532613012 pbc="F F F"
B        0.00000000       0.00000000       0.00000000       0.00000000       0.00000000       0.05464388
B        0.00000000       0.00000000       4.74848485       0.00000000       0.00000000      -0.05464388
2
Properties=species:S:1:pos:R:3:forces:R:3 energy=-0.5766048448796236 pbc="F F F"
B        0.00000000       0.00000000       0.00000000       0.00000000       0.00000000       0.05010537
B        0.00000000       0.00000000       4.80808081       0.00000000       0.00000000      -0.05010537
2
Properties=species:S:1:pos:R:3:forces:R:3 energy=-0.5737254092860196 pbc="F F F"
B        0.00000000       0.00000000       0.00000000       0.00000000       0.00000000       0.04669948
B        0.00000000       0.00000000       4.86767677       0.00000000       0.00000000      -0.04669948
2
Properties=species:S:1:pos:R:3:forces:R:3 energy=-0.5710199604822794 pbc="F F F"
B        0.00000000       0.00000000       0.00000000       0.00000000       0.00000000       0.04423013
B        0.00000000       0.00000000       4.92727273       0.00000000       0.00000000      -0.04423013
2
Properties=species:S:1:pos:R:3:forces:R:3 energy=-0.5684391209277062 pbc="F F F"
B        0.00000000       0.00000000       0.00000000       0.00000000       0.00000000       0.04248629
B        0.00000000       0.00000000       4.98686869       0.00000000       0.00000000      -0.04248629
2
Properties=species:S:1:pos:R:3:forces:R:3 energy=-0.565944163890061 pbc="F F F"
B        0.00000000       0.00000000       0.00000000       0.00000000       0.00000000       0.04135810
B        0.00000000       0.00000000       5.04646465       0.00000000       0.00000000      -0.04135810
2
Properties=species:S:1:pos:R:3:forces:R:3 energy=-0.5634963911475039 pbc="F F F"
B        0.00000000       0.00000000       0.00000000       0.00000000       0.00000000       0.04091293
B        0.00000000       0.00000000       5.10606061       0.00000000       0.00000000      -0.04091293
2
Properties=species:S:1:pos:R:3:forces:R:3 energy=-0.561050498450068 pbc="F F F"
B        0.00000000       0.00000000       0.00000000       0.00000000       0.00000000       0.04130036
B        0.00000000       0.00000000       5.16565657       0.00000000       0.00000000      -0.04130036
2
Properties=species:S:1:pos:R:3:forces:R:3 energy=-0.5585583131892575 pbc="F F F"
B        0.00000000       0.00000000       0.00000000       0.00000000       0.00000000       0.04242017
B        0.00000000       0.00000000       5.22525253       0.00000000       0.00000000      -0.04242017
2
Properties=species:S:1:pos:R:3:forces:R:3 energy=-0.5559953303443061 pbc="F F F"
B        0.00000000       0.00000000       0.00000000       0.00000000       0.00000000       0.04347182
B        0.00000000       0.00000000       5.28484848       0.00000000       0.00000000      -0.04347182
2
Properties=species:S:1:pos:R:3:forces:R:3 energy=-0.5534094773971368 pbc="F F F"
B        0.00000000       0.00000000       0.00000000       0.00000000       0.00000000       0.04288707
B        0.00000000       0.00000000       5.34444444       0.00000000       0.00000000      -0.04288707
2
Properties=species:S:1:pos:R:3:forces:R:3 energy=-0.5509414862515964 pbc="F F F"
B        0.00000000       0.00000000       0.00000000       0.00000000       0.00000000       0.03947340
B        0.00000000       0.00000000       5.40404040       0.00000000       0.00000000      -0.03947340
2
Properties=species:S:1:pos:R:3:forces:R:3 energy=-0.5487339511967079 pbc="F F F"
B        0.00000000       0.00000000       0.00000000       0.00000000       0.00000000       0.03463278
B        0.00000000       0.00000000       5.46363636       0.00000000       0.00000000      -0.03463278
2
Properties=species:S:1:pos:R:3:forces:R:3 energy=-0.5467868349724215 pbc="F F F"
B        0.00000000       0.00000000       0.00000000       0.00000000       0.00000000       0.03095834
B        0.00000000       0.00000000       5.52323232       0.00000000       0.00000000      -0.03095834
2
Properties=species:S:1:pos:R:3:forces:R:3 energy=-0.5450512324195371 pbc="F F F"
B        0.00000000       0.00000000       0.00000000       0.00000000       0.00000000       0.02700042
B        0.00000000       0.00000000       5.58282828       0.00000000       0.00000000      -0.02700042
2
Properties=species:S:1:pos:R:3:forces:R:3 energy=-0.5436012019590799 pbc="F F F"
B        0.00000000       0.00000000       0.00000000       0.00000000       0.00000000       0.02151392
B        0.00000000       0.00000000       5.64242424       0.00000000       0.00000000      -0.02151392
2
Properties=species:S:1:pos:R:3:forces:R:3 energy=-0.5424777192463563 pbc="F F F"
B        0.00000000       0.00000000       0.00000000       0.00000000       0.00000000       0.01655686
B        0.00000000       0.00000000       5.70202020       0.00000000       0.00000000      -0.01655686
2
Properties=species:S:1:pos:R:3:forces:R:3 energy=-0.5415468826707556 pbc="F F F"
B        0.00000000       0.00000000       0.00000000       0.00000000       0.00000000       0.01540896
B        0.00000000       0.00000000       5.76161616       0.00000000       0.00000000      -0.01540896
2
Properties=species:S:1:pos:R:3:forces:R:3 energy=-0.5406257823284157 pbc="F F F"
B        0.00000000       0.00000000       0.00000000       0.00000000       0.00000000       0.01491127
B        0.00000000       0.00000000       5.82121212       0.00000000       0.00000000      -0.01491127
2
Properties=species:S:1:pos:R:3:forces:R:3 energy=-0.5398680299922306 pbc="F F F"
B        0.00000000       0.00000000       0.00000000       0.00000000       0.00000000       0.00996751
B        0.00000000       0.00000000       5.88080808       0.00000000       0.00000000      -0.00996751
2
Properties=species:S:1:pos:R:3:forces:R:3 energy=-0.5394538068414735 pbc="F F F"
B        0.00000000       0.00000000       0.00000000       0.00000000       0.00000000       0.00410740
B        0.00000000       0.00000000       5.94040404       0.00000000       0.00000000      -0.00410740
2
Properties=species:S:1:pos:R:3:forces:R:3 energy=-0.5393067997168314 pbc="F F F"
B        0.00000000       0.00000000       0.00000000       0.00000000       0.00000000       0.00162845
B        0.00000000       0.00000000       6.00000000       0.00000000       0.00000000      -0.00162845
