2
Properties=species:S:1:pos:R:3:forces:R:3 energy=173304.98117714838 pbc="F F F"
Ba       0.00000000       0.00000000       0.00000000       0.00000000       0.00000000 -1234151.37500000
Ba       0.00000000       0.00000000       0.10000000       0.00000000       0.00000000 1234151.37500000
2
Properties=species:S:1:pos:R:3:forces:R:3 energy=137182.76242714838 pbc="F F F"
Ba       0.00000000       0.00000000       0.00000000       0.00000000       0.00000000 -268627.12500000
Ba       0.00000000       0.00000000       0.15959596       0.00000000       0.00000000  268627.12500000
2
Properties=species:S:1:pos:R:3:forces:R:3 energy=127597.77023964838 pbc="F F F"
Ba       0.00000000       0.00000000       0.00000000       0.00000000       0.00000000  -95815.78906250
Ba       0.00000000       0.00000000       0.21919192       0.00000000       0.00000000   95815.78906250
2
Properties=species:S:1:pos:R:3:forces:R:3 energy=123166.99680214838 pbc="F F F"
Ba       0.00000000       0.00000000       0.00000000       0.00000000       0.00000000  -64091.17968750
Ba       0.00000000       0.00000000       0.27878788       0.00000000       0.00000000   64091.17968750
2
Properties=species:S:1:pos:R:3:forces:R:3 energy=119085.04367714838 pbc="F F F"
Ba       0.00000000       0.00000000       0.00000000       0.00000000       0.00000000  -78145.05468750
Ba       0.00000000       0.00000000       0.33838384       0.00000000       0.00000000   78145.05468750
2
Properties=species:S:1:pos:R:3:forces:R:3 energy=113360.52023964838 pbc="F F F"
Ba       0.00000000       0.00000000       0.00000000       0.00000000       0.00000000 -117377.03906250
Ba       0.00000000       0.00000000       0.39797980       0.00000000       0.00000000  117377.03906250
2
Properties=species:S:1:pos:R:3:forces:R:3 energy=104756.80930214838 pbc="F F F"
Ba       0.00000000       0.00000000       0.00000000       0.00000000       0.00000000 -173546.45312500
Ba       0.00000000       0.00000000       0.45757576       0.00000000       0.00000000  173546.45312500
2
Properties=species:S:1:pos:R:3:forces:R:3 energy=92526.52805215472 pbc="F F F"
Ba       0.00000000       0.00000000       0.00000000       0.00000000       0.00000000 -237017.10937500
Ba       0.00000000       0.00000000       0.51717172       0.00000000       0.00000000  237017.10937500
2
Properties=species:S:1:pos:R:3:forces:R:3 energy=76655.85617716738 pbc="F F F"
Ba       0.00000000       0.00000000       0.00000000       0.00000000       0.00000000 -292752.87500000
Ba       0.00000000       0.00000000       0.57676768       0.00000000       0.00000000  292752.87500000
2
Properties=species:S:1:pos:R:3:forces:R:3 energy=58166.8757084364 pbc="F F F"
Ba       0.00000000       0.00000000       0.00000000       0.00000000       0.00000000 -321669.75000000
Ba       0.00000000       0.00000000       0.63636364       0.00000000       0.00000000  321669.75000000
2
Properties=species:S:1:pos:R:3:forces:R:3 energy=38881.44992721174 pbc="F F F"
Ba       0.00000000       0.00000000       0.00000000       0.00000000       0.00000000 -314288.56250000
Ba       0.00000000       0.00000000       0.69595960       0.00000000       0.00000000  314288.56250000
2
Properties=species:S:1:pos:R:3:forces:R:3 energy=21820.08469288109 pbc="F F F"
Ba       0.00000000       0.00000000       0.00000000       0.00000000       0.00000000 -251411.10937500
Ba       0.00000000       0.00000000       0.75555556       0.00000000       0.00000000  251411.10937500
2
Properties=species:S:1:pos:R:3:forces:R:3 energy=9543.32883356311 pbc="F F F"
Ba       0.00000000       0.00000000       0.00000000       0.00000000       0.00000000 -159289.64062500
Ba       0.00000000       0.00000000       0.81515152       0.00000000       0.00000000  159289.64062500
2
Properties=species:S:1:pos:R:3:forces:R:3 energy=2359.4762945956436 pbc="F F F"
Ba       0.00000000       0.00000000       0.00000000       0.00000000       0.00000000  -61645.89062500
Ba       0.00000000       0.00000000       0.87474747       0.00000000       0.00000000   61645.89062500
2
Properties=species:S:1:pos:R:3:forces:R:3 energy=328.85086746992704 pbc="F F F"
Ba       0.00000000       0.00000000       0.00000000       0.00000000       0.00000000   -1282.08569336
Ba       0.00000000       0.00000000       0.93434343       0.00000000       0.00000000    1282.08569336
2
Properties=species:S:1:pos:R:3:forces:R:3 energy=246.03211154380944 pbc="F F F"
Ba       0.00000000       0.00000000       0.00000000       0.00000000       0.00000000   -1183.68847656
Ba       0.00000000       0.00000000       0.99393939       0.00000000       0.00000000    1183.68847656
2
Properties=species:S:1:pos:R:3:forces:R:3 energy=161.55232966740044 pbc="F F F"
Ba       0.00000000       0.00000000       0.00000000       0.00000000       0.00000000   -1372.41247559
Ba       0.00000000       0.00000000       1.05353535       0.00000000       0.00000000    1372.41247559
2
Properties=species:S:1:pos:R:3:forces:R:3 energy=101.01275631474905 pbc="F F F"
Ba       0.00000000       0.00000000       0.00000000       0.00000000       0.00000000    -600.28338623
Ba       0.00000000       0.00000000       1.11313131       0.00000000       0.00000000     600.28338623
2
Properties=species:S:1:pos:R:3:forces:R:3 energy=90.06876411815549 pbc="F F F"
Ba       0.00000000       0.00000000       0.00000000       0.00000000       0.00000000     153.74496460
Ba       0.00000000       0.00000000       1.17272727       0.00000000       0.00000000    -153.74496460
2
Properties=species:S:1:pos:R:3:forces:R:3 energy=102.67029663910712 pbc="F F F"
Ba       0.00000000       0.00000000       0.00000000       0.00000000       0.00000000      70.14673615
Ba       0.00000000       0.00000000       1.23232323       0.00000000       0.00000000     -70.14673615
2
Properties=species:S:1:pos:R:3:forces:R:3 energy=94.60679023694294 pbc="F F F"
Ba       0.00000000       0.00000000       0.00000000       0.00000000       0.00000000    -201.41470337
Ba       0.00000000       0.00000000       1.29191919       0.00000000       0.00000000     201.41470337
2
Properties=species:S:1:pos:R:3:forces:R:3 energy=82.61577855069096 pbc="F F F"
Ba       0.00000000       0.00000000       0.00000000       0.00000000       0.00000000    -194.60261536
Ba       0.00000000       0.00000000       1.35151515       0.00000000       0.00000000     194.60261536
2
Properties=species:S:1:pos:R:3:forces:R:3 energy=71.67793633033915 pbc="F F F"
Ba       0.00000000       0.00000000       0.00000000       0.00000000       0.00000000    -173.28477478
Ba       0.00000000       0.00000000       1.41111111       0.00000000       0.00000000     173.28477478
2
Properties=species:S:1:pos:R:3:forces:R:3 energy=61.87991828332299 pbc="F F F"
Ba       0.00000000       0.00000000       0.00000000       0.00000000       0.00000000    -155.61087036
Ba       0.00000000       0.00000000       1.47070707       0.00000000       0.00000000     155.61087036
2
Properties=species:S:1:pos:R:3:forces:R:3 energy=53.15001962750389 pbc="F F F"
Ba       0.00000000       0.00000000       0.00000000       0.00000000       0.00000000    -137.21231079
Ba       0.00000000       0.00000000       1.53030303       0.00000000       0.00000000     137.21231079
2
Properties=species:S:1:pos:R:3:forces:R:3 energy=45.51630893070488 pbc="F F F"
Ba       0.00000000       0.00000000       0.00000000       0.00000000       0.00000000    -119.30445099
Ba       0.00000000       0.00000000       1.58989899       0.00000000       0.00000000     119.30445099
2
Properties=species:S:1:pos:R:3:forces:R:3 energy=38.86866742199385 pbc="F F F"
Ba       0.00000000       0.00000000       0.00000000       0.00000000       0.00000000    -104.36874390
Ba       0.00000000       0.00000000       1.64949495       0.00000000       0.00000000     104.36874390
2
Properties=species:S:1:pos:R:3:forces:R:3 energy=33.01604748993456 pbc="F F F"
Ba       0.00000000       0.00000000       0.00000000       0.00000000       0.00000000     -92.41273499
Ba       0.00000000       0.00000000       1.70909091       0.00000000       0.00000000      92.41273499
2
Properties=species:S:1:pos:R:3:forces:R:3 energy=27.827109215377487 pbc="F F F"
Ba       0.00000000       0.00000000       0.00000000       0.00000000       0.00000000     -81.83419800
Ba       0.00000000       0.00000000       1.76868687       0.00000000       0.00000000      81.83419800
2
Properties=species:S:1:pos:R:3:forces:R:3 energy=23.253886670932403 pbc="F F F"
Ba       0.00000000       0.00000000       0.00000000       0.00000000       0.00000000     -71.70714569
Ba       0.00000000       0.00000000       1.82828283       0.00000000       0.00000000      71.70714569
2
Properties=species:S:1:pos:R:3:forces:R:3 energy=19.269713348412484 pbc="F F F"
Ba       0.00000000       0.00000000       0.00000000       0.00000000       0.00000000     -62.10230255
Ba       0.00000000       0.00000000       1.88787879       0.00000000       0.00000000      62.10230255
2
Properties=species:S:1:pos:R:3:forces:R:3 energy=15.839745929706394 pbc="F F F"
Ba       0.00000000       0.00000000       0.00000000       0.00000000       0.00000000     -53.10023117
Ba       0.00000000       0.00000000       1.94747475       0.00000000       0.00000000      53.10023117
2
Properties=species:S:1:pos:R:3:forces:R:3 energy=12.928583197227706 pbc="F F F"
Ba       0.00000000       0.00000000       0.00000000       0.00000000       0.00000000     -44.71506882
Ba       0.00000000       0.00000000       2.00707071       0.00000000       0.00000000      44.71506882
2
Properties=species:S:1:pos:R:3:forces:R:3 energy=10.492444988859909 pbc="F F F"
Ba       0.00000000       0.00000000       0.00000000       0.00000000       0.00000000     -37.21538544
Ba       0.00000000       0.00000000       2.06666667       0.00000000       0.00000000      37.21538544
2
Properties=species:S:1:pos:R:3:forces:R:3 energy=8.470139923163153 pbc="F F F"
Ba       0.00000000       0.00000000       0.00000000       0.00000000       0.00000000     -30.84633255
Ba       0.00000000       0.00000000       2.12626263       0.00000000       0.00000000      30.84633255
2
Properties=species:S:1:pos:R:3:forces:R:3 energy=6.7936435548918235 pbc="F F F"
Ba       0.00000000       0.00000000       0.00000000       0.00000000       0.00000000     -25.58779526
Ba       0.00000000       0.00000000       2.18585859       0.00000000       0.00000000      25.58779526
2
Properties=species:S:1:pos:R:3:forces:R:3 energy=5.401794117195036 pbc="F F F"
Ba       0.00000000       0.00000000       0.00000000       0.00000000       0.00000000     -21.25993156
Ba       0.00000000       0.00000000       2.24545455       0.00000000       0.00000000      21.25993156
2
Properties=species:S:1:pos:R:3:forces:R:3 energy=4.244873935018775 pbc="F F F"
Ba       0.00000000       0.00000000       0.00000000       0.00000000       0.00000000     -17.67595673
Ba       0.00000000       0.00000000       2.30505051       0.00000000       0.00000000      17.67595673
2
Properties=species:S:1:pos:R:3:forces:R:3 energy=3.2831775084624 pbc="F F F"
Ba       0.00000000       0.00000000       0.00000000       0.00000000       0.00000000     -14.68637466
Ba       0.00000000       0.00000000       2.36464646       0.00000000       0.00000000      14.68637466
2
Properties=species:S:1:pos:R:3:forces:R:3 energy=2.4848922100289985 pbc="F F F"
Ba       0.00000000       0.00000000       0.00000000       0.00000000       0.00000000     -12.17516327
Ba       0.00000000       0.00000000       2.42424242       0.00000000       0.00000000      12.17516327
2
Properties=species:S:1:pos:R:3:forces:R:3 energy=1.8242012018307259 pbc="F F F"
Ba       0.00000000       0.00000000       0.00000000       0.00000000       0.00000000     -10.05737400
Ba       0.00000000       0.00000000       2.48383838       0.00000000       0.00000000      10.05737400
2
Properties=species:S:1:pos:R:3:forces:R:3 energy=1.279444419717361 pbc="F F F"
Ba       0.00000000       0.00000000       0.00000000       0.00000000       0.00000000      -8.27715588
Ba       0.00000000       0.00000000       2.54343434       0.00000000       0.00000000       8.27715588
2
Properties=species:S:1:pos:R:3:forces:R:3 energy=0.83165870364648 pbc="F F F"
Ba       0.00000000       0.00000000       0.00000000       0.00000000       0.00000000      -6.79772091
Ba       0.00000000       0.00000000       2.60303030       0.00000000       0.00000000       6.79772091
2
Properties=species:S:1:pos:R:3:forces:R:3 energy=0.4639015335430351 pbc="F F F"
Ba       0.00000000       0.00000000       0.00000000       0.00000000       0.00000000      -5.58522177
Ba       0.00000000       0.00000000       2.66262626       0.00000000       0.00000000       5.58522177
2
Properties=species:S:1:pos:R:3:forces:R:3 energy=0.1614496687499012 pbc="F F F"
Ba       0.00000000       0.00000000       0.00000000       0.00000000       0.00000000      -4.59857655
Ba       0.00000000       0.00000000       2.72222222       0.00000000       0.00000000       4.59857655
2
Properties=species:S:1:pos:R:3:forces:R:3 energy=-0.08778575191682478 pbc="F F F"
Ba       0.00000000       0.00000000       0.00000000       0.00000000       0.00000000      -3.79203916
Ba       0.00000000       0.00000000       2.78181818       0.00000000       0.00000000       3.79203916
2
Properties=species:S:1:pos:R:3:forces:R:3 energy=-0.2933059783651041 pbc="F F F"
Ba       0.00000000       0.00000000       0.00000000       0.00000000       0.00000000      -3.12581873
Ba       0.00000000       0.00000000       2.84141414       0.00000000       0.00000000       3.12581873
2
Properties=species:S:1:pos:R:3:forces:R:3 energy=-0.4625934220899801 pbc="F F F"
Ba       0.00000000       0.00000000       0.00000000       0.00000000       0.00000000      -2.57247424
Ba       0.00000000       0.00000000       2.90101010       0.00000000       0.00000000       2.57247424
2
Properties=species:S:1:pos:R:3:forces:R:3 energy=-0.6018140572345546 pbc="F F F"
Ba       0.00000000       0.00000000       0.00000000       0.00000000       0.00000000      -2.11441708
Ba       0.00000000       0.00000000       2.96060606       0.00000000       0.00000000       2.11441708
2
Properties=species:S:1:pos:R:3:forces:R:3 energy=-0.7162491237947707 pbc="F F F"
Ba       0.00000000       0.00000000       0.00000000       0.00000000       0.00000000      -1.73875165
Ba       0.00000000       0.00000000       3.02020202       0.00000000       0.00000000       1.73875165
2
Properties=species:S:1:pos:R:3:forces:R:3 energy=-0.8104746895496181 pbc="F F F"
Ba       0.00000000       0.00000000       0.00000000       0.00000000       0.00000000      -1.43437898
Ba       0.00000000       0.00000000       3.07979798       0.00000000       0.00000000       1.43437898
2
Properties=species:S:1:pos:R:3:forces:R:3 energy=-0.8884309927379177 pbc="F F F"
Ba       0.00000000       0.00000000       0.00000000       0.00000000       0.00000000      -1.19116282
Ba       0.00000000       0.00000000       3.13939394       0.00000000       0.00000000       1.19116282
2
Properties=species:S:1:pos:R:3:forces:R:3 energy=-0.9534748909256878 pbc="F F F"
Ba       0.00000000       0.00000000       0.00000000       0.00000000       0.00000000      -0.99941093
Ba       0.00000000       0.00000000       3.19898990       0.00000000       0.00000000       0.99941093
2
Properties=species:S:1:pos:R:3:forces:R:3 energy=-1.0083762595610652 pbc="F F F"
Ba       0.00000000       0.00000000       0.00000000       0.00000000       0.00000000      -0.84910208
Ba       0.00000000       0.00000000       3.25858586       0.00000000       0.00000000       0.84910208
2
Properties=species:S:1:pos:R:3:forces:R:3 energy=-1.0552968720031113 pbc="F F F"
Ba       0.00000000       0.00000000       0.00000000       0.00000000       0.00000000      -0.72980165
Ba       0.00000000       0.00000000       3.31818182       0.00000000       0.00000000       0.72980165
2
Properties=species:S:1:pos:R:3:forces:R:3 energy=-1.0957810185859098 pbc="F F F"
Ba       0.00000000       0.00000000       0.00000000       0.00000000       0.00000000      -0.63161212
Ba       0.00000000       0.00000000       3.37777778       0.00000000       0.00000000       0.63161212
2
Properties=species:S:1:pos:R:3:forces:R:3 energy=-1.130840251256264 pbc="F F F"
Ba       0.00000000       0.00000000       0.00000000       0.00000000       0.00000000      -0.54666609
Ba       0.00000000       0.00000000       3.43737374       0.00000000       0.00000000       0.54666609
2
Properties=species:S:1:pos:R:3:forces:R:3 energy=-1.1611033216773556 pbc="F F F"
Ba       0.00000000       0.00000000       0.00000000       0.00000000       0.00000000      -0.47009975
Ba       0.00000000       0.00000000       3.49696970       0.00000000       0.00000000       0.47009975
2
Properties=species:S:1:pos:R:3:forces:R:3 energy=-1.1869976266151718 pbc="F F F"
Ba       0.00000000       0.00000000       0.00000000       0.00000000       0.00000000      -0.39988351
Ba       0.00000000       0.00000000       3.55656566       0.00000000       0.00000000       0.39988351
2
Properties=species:S:1:pos:R:3:forces:R:3 energy=-1.20888826798243 pbc="F F F"
Ba       0.00000000       0.00000000       0.00000000       0.00000000       0.00000000      -0.33580205
Ba       0.00000000       0.00000000       3.61616162       0.00000000       0.00000000       0.33580205
2
Properties=species:S:1:pos:R:3:forces:R:3 energy=-1.227150131701323 pbc="F F F"
Ba       0.00000000       0.00000000       0.00000000       0.00000000       0.00000000      -0.27814946
Ba       0.00000000       0.00000000       3.67575758       0.00000000       0.00000000       0.27814946
2
Properties=species:S:1:pos:R:3:forces:R:3 energy=-1.2421664980376987 pbc="F F F"
Ba       0.00000000       0.00000000       0.00000000       0.00000000       0.00000000      -0.22678295
Ba       0.00000000       0.00000000       3.73535354       0.00000000       0.00000000       0.22678295
2
Properties=species:S:1:pos:R:3:forces:R:3 energy=-1.2542879153879332 pbc="F F F"
Ba       0.00000000       0.00000000       0.00000000       0.00000000       0.00000000      -0.18077625
Ba       0.00000000       0.00000000       3.79494949       0.00000000       0.00000000       0.18077625
2
Properties=species:S:1:pos:R:3:forces:R:3 energy=-1.2637903411472688 pbc="F F F"
Ba       0.00000000       0.00000000       0.00000000       0.00000000       0.00000000      -0.13863266
Ba       0.00000000       0.00000000       3.85454545       0.00000000       0.00000000       0.13863266
2
Properties=species:S:1:pos:R:3:forces:R:3 energy=-1.2708568569948677 pbc="F F F"
Ba       0.00000000       0.00000000       0.00000000       0.00000000       0.00000000      -0.09876115
Ba       0.00000000       0.00000000       3.91414141       0.00000000       0.00000000       0.09876115
2
Properties=species:S:1:pos:R:3:forces:R:3 energy=-1.2755828350668477 pbc="F F F"
Ba       0.00000000       0.00000000       0.00000000       0.00000000       0.00000000      -0.05994081
Ba       0.00000000       0.00000000       3.97373737       0.00000000       0.00000000       0.05994081
2
Properties=species:S:1:pos:R:3:forces:R:3 energy=-1.278008189980623 pbc="F F F"
Ba       0.00000000       0.00000000       0.00000000       0.00000000       0.00000000      -0.02150522
Ba       0.00000000       0.00000000       4.03333333       0.00000000       0.00000000       0.02150522
2
Properties=species:S:1:pos:R:3:forces:R:3 energy=-1.278150235753428 pbc="F F F"
Ba       0.00000000       0.00000000       0.00000000       0.00000000       0.00000000       0.01670545
Ba       0.00000000       0.00000000       4.09292929       0.00000000       0.00000000      -0.01670545
2
Properties=species:S:1:pos:R:3:forces:R:3 energy=-1.276024426058978 pbc="F F F"
Ba       0.00000000       0.00000000       0.00000000       0.00000000       0.00000000       0.05455349
Ba       0.00000000       0.00000000       4.15252525       0.00000000       0.00000000      -0.05455349
2
Properties=species:S:1:pos:R:3:forces:R:3 energy=-1.2716601257405045 pbc="F F F"
Ba       0.00000000       0.00000000       0.00000000       0.00000000       0.00000000       0.09178877
Ba       0.00000000       0.00000000       4.21212121       0.00000000       0.00000000      -0.09178877
2
Properties=species:S:1:pos:R:3:forces:R:3 energy=-1.2651006827278994 pbc="F F F"
Ba       0.00000000       0.00000000       0.00000000       0.00000000       0.00000000       0.12815446
Ba       0.00000000       0.00000000       4.27171717       0.00000000       0.00000000      -0.12815446
2
Properties=species:S:1:pos:R:3:forces:R:3 energy=-1.2564069612001822 pbc="F F F"
Ba       0.00000000       0.00000000       0.00000000       0.00000000       0.00000000       0.16341673
Ba       0.00000000       0.00000000       4.33131313       0.00000000       0.00000000      -0.16341673
2
Properties=species:S:1:pos:R:3:forces:R:3 energy=-1.2456493909784656 pbc="F F F"
Ba       0.00000000       0.00000000       0.00000000       0.00000000       0.00000000       0.19736241
Ba       0.00000000       0.00000000       4.39090909       0.00000000       0.00000000      -0.19736241
2
Properties=species:S:1:pos:R:3:forces:R:3 energy=-1.232911514958209 pbc="F F F"
Ba       0.00000000       0.00000000       0.00000000       0.00000000       0.00000000       0.22986700
Ba       0.00000000       0.00000000       4.45050505       0.00000000       0.00000000      -0.22986700
2
Properties=species:S:1:pos:R:3:forces:R:3 energy=-1.2182770578503581 pbc="F F F"
Ba       0.00000000       0.00000000       0.00000000       0.00000000       0.00000000       0.26108485
Ba       0.00000000       0.00000000       4.51010101       0.00000000       0.00000000      -0.26108485
2
Properties=species:S:1:pos:R:3:forces:R:3 energy=-1.2018035550829063 pbc="F F F"
Ba       0.00000000       0.00000000       0.00000000       0.00000000       0.00000000       0.29172975
Ba       0.00000000       0.00000000       4.56969697       0.00000000       0.00000000      -0.29172975
2
Properties=species:S:1:pos:R:3:forces:R:3 energy=-1.183491099125933 pbc="F F F"
Ba       0.00000000       0.00000000       0.00000000       0.00000000       0.00000000       0.32305005
Ba       0.00000000       0.00000000       4.62929293       0.00000000       0.00000000      -0.32305005
2
Properties=species:S:1:pos:R:3:forces:R:3 energy=-1.1632651176702609 pbc="F F F"
Ba       0.00000000       0.00000000       0.00000000       0.00000000       0.00000000       0.35604224
Ba       0.00000000       0.00000000       4.68888889       0.00000000       0.00000000      -0.35604224
2
Properties=species:S:1:pos:R:3:forces:R:3 energy=-1.1410282567273176 pbc="F F F"
Ba       0.00000000       0.00000000       0.00000000       0.00000000       0.00000000       0.39025673
Ba       0.00000000       0.00000000       4.74848485       0.00000000       0.00000000      -0.39025673
2
Properties=species:S:1:pos:R:3:forces:R:3 energy=-1.1167652442791203 pbc="F F F"
Ba       0.00000000       0.00000000       0.00000000       0.00000000       0.00000000       0.42369896
Ba       0.00000000       0.00000000       4.80808081       0.00000000       0.00000000      -0.42369896
2
Properties=species:S:1:pos:R:3:forces:R:3 energy=-1.0905766034690092 pbc="F F F"
Ba       0.00000000       0.00000000       0.00000000       0.00000000       0.00000000       0.45471862
Ba       0.00000000       0.00000000       4.86767677       0.00000000       0.00000000      -0.45471862
2
Properties=species:S:1:pos:R:3:forces:R:3 energy=-1.062593563869028 pbc="F F F"
Ba       0.00000000       0.00000000       0.00000000       0.00000000       0.00000000       0.48446396
Ba       0.00000000       0.00000000       4.92727273       0.00000000       0.00000000      -0.48446396
2
Properties=species:S:1:pos:R:3:forces:R:3 energy=-1.0327574307338363 pbc="F F F"
Ba       0.00000000       0.00000000       0.00000000       0.00000000       0.00000000       0.51809907
Ba       0.00000000       0.00000000       4.98686869       0.00000000       0.00000000      -0.51809907
2
Properties=species:S:1:pos:R:3:forces:R:3 energy=-1.0006053477481391 pbc="F F F"
Ba       0.00000000       0.00000000       0.00000000       0.00000000       0.00000000       0.56375432
Ba       0.00000000       0.00000000       5.04646465       0.00000000       0.00000000      -0.56375432
2
Properties=species:S:1:pos:R:3:forces:R:3 energy=-0.9651698107007485 pbc="F F F"
Ba       0.00000000       0.00000000       0.00000000       0.00000000       0.00000000       0.62907988
Ba       0.00000000       0.00000000       5.10606061       0.00000000       0.00000000      -0.62907988
2
Properties=species:S:1:pos:R:3:forces:R:3 energy=-0.9251972427539917 pbc="F F F"
Ba       0.00000000       0.00000000       0.00000000       0.00000000       0.00000000       0.71501327
Ba       0.00000000       0.00000000       5.16565657       0.00000000       0.00000000      -0.71501327
2
Properties=species:S:1:pos:R:3:forces:R:3 energy=-0.879800970197844 pbc="F F F"
Ba       0.00000000       0.00000000       0.00000000       0.00000000       0.00000000       0.80730850
Ba       0.00000000       0.00000000       5.22525253       0.00000000       0.00000000      -0.80730850
2
Properties=species:S:1:pos:R:3:forces:R:3 energy=-0.8295373804160335 pbc="F F F"
Ba       0.00000000       0.00000000       0.00000000       0.00000000       0.00000000       0.87112540
Ba       0.00000000       0.00000000       5.28484848       0.00000000       0.00000000      -0.87112540
2
Properties=species:S:1:pos:R:3:forces:R:3 energy=-0.7772957538925603 pbc="F F F"
Ba       0.00000000       0.00000000       0.00000000       0.00000000       0.00000000       0.87059498
Ba       0.00000000       0.00000000       5.34444444       0.00000000       0.00000000      -0.87059498
2
Properties=species:S:1:pos:R:3:forces:R:3 energy=-0.726390843087676 pbc="F F F"
Ba       0.00000000       0.00000000       0.00000000       0.00000000       0.00000000       0.84351128
Ba       0.00000000       0.00000000       5.40404040       0.00000000       0.00000000      -0.84351128
2
Properties=species:S:1:pos:R:3:forces:R:3 energy=-0.6744875910078855 pbc="F F F"
Ba       0.00000000       0.00000000       0.00000000       0.00000000       0.00000000       0.92395842
Ba       0.00000000       0.00000000       5.46363636       0.00000000       0.00000000      -0.92395842
2
Properties=species:S:1:pos:R:3:forces:R:3 energy=-0.6145608691254016 pbc="F F F"
Ba       0.00000000       0.00000000       0.00000000       0.00000000       0.00000000       1.08054280
Ba       0.00000000       0.00000000       5.52323232       0.00000000       0.00000000      -1.08054280
2
Properties=species:S:1:pos:R:3:forces:R:3 energy=-0.5489984628625476 pbc="F F F"
Ba       0.00000000       0.00000000       0.00000000       0.00000000       0.00000000       1.08449268
Ba       0.00000000       0.00000000       5.58282828       0.00000000       0.00000000      -1.08449268
2
Properties=species:S:1:pos:R:3:forces:R:3 energy=-0.48800904674906176 pbc="F F F"
Ba       0.00000000       0.00000000       0.00000000       0.00000000       0.00000000       0.96072227
Ba       0.00000000       0.00000000       5.64242424       0.00000000       0.00000000      -0.96072227
2
Properties=species:S:1:pos:R:3:forces:R:3 energy=-0.4313288524222906 pbc="F F F"
Ba       0.00000000       0.00000000       0.00000000       0.00000000       0.00000000       0.99336791
Ba       0.00000000       0.00000000       5.70202020       0.00000000       0.00000000      -0.99336791
2
Properties=species:S:1:pos:R:3:forces:R:3 energy=-0.36288811408799754 pbc="F F F"
Ba       0.00000000       0.00000000       0.00000000       0.00000000       0.00000000       1.33617330
Ba       0.00000000       0.00000000       5.76161616       0.00000000       0.00000000      -1.33617330
2
Properties=species:S:1:pos:R:3:forces:R:3 energy=-0.27610488980764014 pbc="F F F"
Ba       0.00000000       0.00000000       0.00000000       0.00000000       0.00000000       1.47788489
Ba       0.00000000       0.00000000       5.82121212       0.00000000       0.00000000      -1.47788489
2
Properties=species:S:1:pos:R:3:forces:R:3 energy=-0.2002582350174878 pbc="F F F"
Ba       0.00000000       0.00000000       0.00000000       0.00000000       0.00000000       0.99031526
Ba       0.00000000       0.00000000       5.88080808       0.00000000       0.00000000      -0.99031526
2
Properties=species:S:1:pos:R:3:forces:R:3 energy=-0.16142061408303182 pbc="F F F"
Ba       0.00000000       0.00000000       0.00000000       0.00000000       0.00000000       0.32525048
Ba       0.00000000       0.00000000       5.94040404       0.00000000       0.00000000      -0.32525048
2
Properties=species:S:1:pos:R:3:forces:R:3 energy=-0.15340794428260102 pbc="F F F"
Ba       0.00000000       0.00000000       0.00000000       0.00000000       0.00000000       0.04043264
Ba       0.00000000       0.00000000       6.00000000       0.00000000       0.00000000      -0.04043264
