2
Properties=species:S:1:pos:R:3:forces:R:3 energy=7725.446538523142 pbc="F F F"
Cl       0.00000000       0.00000000       0.00000000       0.00000000       0.00000000 -157122.65625000
Cl       0.00000000       0.00000000       0.10000000       0.00000000       0.00000000  157122.65625000
2
Properties=species:S:1:pos:R:3:forces:R:3 energy=2833.8044486793924 pbc="F F F"
Cl       0.00000000       0.00000000       0.00000000       0.00000000       0.00000000  -39462.93359375
Cl       0.00000000       0.00000000       0.15959596       0.00000000       0.00000000   39462.93359375
2
Properties=species:S:1:pos:R:3:forces:R:3 energy=1409.7451225075174 pbc="F F F"
Cl       0.00000000       0.00000000       0.00000000       0.00000000       0.00000000  -13708.15039062
Cl       0.00000000       0.00000000       0.21919192       0.00000000       0.00000000   13708.15039062
2
Properties=species:S:1:pos:R:3:forces:R:3 energy=871.9732108864238 pbc="F F F"
Cl       0.00000000       0.00000000       0.00000000       0.00000000       0.00000000   -5696.77685547
Cl       0.00000000       0.00000000       0.27878788       0.00000000       0.00000000    5696.77685547
2
Properties=species:S:1:pos:R:3:forces:R:3 energy=637.1772514201032 pbc="F F F"
Cl       0.00000000       0.00000000       0.00000000       0.00000000       0.00000000   -2556.31103516
Cl       0.00000000       0.00000000       0.33838384       0.00000000       0.00000000    2556.31103516
2
Properties=species:S:1:pos:R:3:forces:R:3 energy=541.5683036852039 pbc="F F F"
Cl       0.00000000       0.00000000       0.00000000       0.00000000       0.00000000    -796.16394043
Cl       0.00000000       0.00000000       0.39797980       0.00000000       0.00000000     796.16394043
2
Properties=species:S:1:pos:R:3:forces:R:3 energy=525.348027834808 pbc="F F F"
Cl       0.00000000       0.00000000       0.00000000       0.00000000       0.00000000      71.32104492
Cl       0.00000000       0.00000000       0.45757576       0.00000000       0.00000000     -71.32104492
2
Properties=species:S:1:pos:R:3:forces:R:3 energy=524.2371880480788 pbc="F F F"
Cl       0.00000000       0.00000000       0.00000000       0.00000000       0.00000000    -303.18597412
Cl       0.00000000       0.00000000       0.51717172       0.00000000       0.00000000     303.18597412
2
Properties=species:S:1:pos:R:3:forces:R:3 energy=468.7191522576094 pbc="F F F"
Cl       0.00000000       0.00000000       0.00000000       0.00000000       0.00000000   -1394.55664062
Cl       0.00000000       0.00000000       0.57676768       0.00000000       0.00000000    1394.55664062
2
Properties=species:S:1:pos:R:3:forces:R:3 energy=397.4100093686012 pbc="F F F"
Cl       0.00000000       0.00000000       0.00000000       0.00000000       0.00000000   -1184.77026367
Cl       0.00000000       0.00000000       0.63636364       0.00000000       0.00000000    1184.77026367
2
Properties=species:S:1:pos:R:3:forces:R:3 energy=323.42978503165887 pbc="F F F"
Cl       0.00000000       0.00000000       0.00000000       0.00000000       0.00000000   -1259.61560059
Cl       0.00000000       0.00000000       0.69595960       0.00000000       0.00000000    1259.61560059
2
Properties=species:S:1:pos:R:3:forces:R:3 energy=253.44568511118237 pbc="F F F"
Cl       0.00000000       0.00000000       0.00000000       0.00000000       0.00000000   -1071.22924805
Cl       0.00000000       0.00000000       0.75555556       0.00000000       0.00000000    1071.22924805
2
Properties=species:S:1:pos:R:3:forces:R:3 energy=195.53566682068052 pbc="F F F"
Cl       0.00000000       0.00000000       0.00000000       0.00000000       0.00000000    -872.73486328
Cl       0.00000000       0.00000000       0.81515152       0.00000000       0.00000000     872.73486328
2
Properties=species:S:1:pos:R:3:forces:R:3 energy=147.62915833676706 pbc="F F F"
Cl       0.00000000       0.00000000       0.00000000       0.00000000       0.00000000    -738.00640869
Cl       0.00000000       0.00000000       0.87474747       0.00000000       0.00000000     738.00640869
2
Properties=species:S:1:pos:R:3:forces:R:3 energy=108.98035591196536 pbc="F F F"
Cl       0.00000000       0.00000000       0.00000000       0.00000000       0.00000000    -561.33215332
Cl       0.00000000       0.00000000       0.93434343       0.00000000       0.00000000     561.33215332
2
Properties=species:S:1:pos:R:3:forces:R:3 energy=79.96881442152345 pbc="F F F"
Cl       0.00000000       0.00000000       0.00000000       0.00000000       0.00000000    -417.32830811
Cl       0.00000000       0.00000000       0.99393939       0.00000000       0.00000000     417.32830811
2
Properties=species:S:1:pos:R:3:forces:R:3 energy=58.570615856137856 pbc="F F F"
Cl       0.00000000       0.00000000       0.00000000       0.00000000       0.00000000    -308.21005249
Cl       0.00000000       0.00000000       1.05353535       0.00000000       0.00000000     308.21005249
2
Properties=species:S:1:pos:R:3:forces:R:3 energy=42.498044478173576 pbc="F F F"
Cl       0.00000000       0.00000000       0.00000000       0.00000000       0.00000000    -234.97789001
Cl       0.00000000       0.00000000       1.11313131       0.00000000       0.00000000     234.97789001
2
Properties=species:S:1:pos:R:3:forces:R:3 energy=30.254335353652472 pbc="F F F"
Cl       0.00000000       0.00000000       0.00000000       0.00000000       0.00000000    -177.97619629
Cl       0.00000000       0.00000000       1.17272727       0.00000000       0.00000000     177.97619629
2
Properties=species:S:1:pos:R:3:forces:R:3 energy=21.064031353798164 pbc="F F F"
Cl       0.00000000       0.00000000       0.00000000       0.00000000       0.00000000    -132.15914917
Cl       0.00000000       0.00000000       1.23232323       0.00000000       0.00000000     132.15914917
2
Properties=species:S:1:pos:R:3:forces:R:3 energy=14.300761389551123 pbc="F F F"
Cl       0.00000000       0.00000000       0.00000000       0.00000000       0.00000000     -96.49912262
Cl       0.00000000       0.00000000       1.29191919       0.00000000       0.00000000      96.49912262
2
Properties=species:S:1:pos:R:3:forces:R:3 energy=9.371440501363388 pbc="F F F"
Cl       0.00000000       0.00000000       0.00000000       0.00000000       0.00000000     -70.35198212
Cl       0.00000000       0.00000000       1.35151515       0.00000000       0.00000000      70.35198212
2
Properties=species:S:1:pos:R:3:forces:R:3 energy=5.771820485140068 pbc="F F F"
Cl       0.00000000       0.00000000       0.00000000       0.00000000       0.00000000     -51.44722748
Cl       0.00000000       0.00000000       1.41111111       0.00000000       0.00000000      51.44722748
2
Properties=species:S:1:pos:R:3:forces:R:3 energy=3.140062013105513 pbc="F F F"
Cl       0.00000000       0.00000000       0.00000000       0.00000000       0.00000000     -37.56811142
Cl       0.00000000       0.00000000       1.47070707       0.00000000       0.00000000      37.56811142
2
Properties=species:S:1:pos:R:3:forces:R:3 energy=1.223502607470213 pbc="F F F"
Cl       0.00000000       0.00000000       0.00000000       0.00000000       0.00000000     -27.25383568
Cl       0.00000000       0.00000000       1.53030303       0.00000000       0.00000000      27.25383568
2
Properties=species:S:1:pos:R:3:forces:R:3 energy=-0.15991840386473616 pbc="F F F"
Cl       0.00000000       0.00000000       0.00000000       0.00000000       0.00000000     -19.54174423
Cl       0.00000000       0.00000000       1.58989899       0.00000000       0.00000000      19.54174423
2
Properties=species:S:1:pos:R:3:forces:R:3 energy=-1.1432411662047748 pbc="F F F"
Cl       0.00000000       0.00000000       0.00000000       0.00000000       0.00000000     -13.72508717
Cl       0.00000000       0.00000000       1.64949495       0.00000000       0.00000000      13.72508717
2
Properties=species:S:1:pos:R:3:forces:R:3 energy=-1.82311511197689 pbc="F F F"
Cl       0.00000000       0.00000000       0.00000000       0.00000000       0.00000000      -9.28687668
Cl       0.00000000       0.00000000       1.70909091       0.00000000       0.00000000       9.28687668
2
Properties=species:S:1:pos:R:3:forces:R:3 energy=-2.270363478870853 pbc="F F F"
Cl       0.00000000       0.00000000       0.00000000       0.00000000       0.00000000      -5.86930037
Cl       0.00000000       0.00000000       1.76868687       0.00000000       0.00000000       5.86930037
2
Properties=species:S:1:pos:R:3:forces:R:3 energy=-2.5380042346107112 pbc="F F F"
Cl       0.00000000       0.00000000       0.00000000       0.00000000       0.00000000      -3.22516370
Cl       0.00000000       0.00000000       1.82828283       0.00000000       0.00000000       3.22516370
2
Properties=species:S:1:pos:R:3:forces:R:3 energy=-2.6667012387496523 pbc="F F F"
Cl       0.00000000       0.00000000       0.00000000       0.00000000       0.00000000      -1.18313468
Cl       0.00000000       0.00000000       1.88787879       0.00000000       0.00000000       1.18313468
2
Properties=species:S:1:pos:R:3:forces:R:3 energy=-2.6886715908961905 pbc="F F F"
Cl       0.00000000       0.00000000       0.00000000       0.00000000       0.00000000       0.37197748
Cl       0.00000000       0.00000000       1.94747475       0.00000000       0.00000000      -0.37197748
2
Properties=species:S:1:pos:R:3:forces:R:3 energy=-2.6305084465021045 pbc="F F F"
Cl       0.00000000       0.00000000       0.00000000       0.00000000       0.00000000       1.51650822
Cl       0.00000000       0.00000000       2.00707071       0.00000000       0.00000000      -1.51650822
2
Properties=species:S:1:pos:R:3:forces:R:3 energy=-2.514970662744909 pbc="F F F"
Cl       0.00000000       0.00000000       0.00000000       0.00000000       0.00000000       2.30569005
Cl       0.00000000       0.00000000       2.06666667       0.00000000       0.00000000      -2.30569005
2
Properties=species:S:1:pos:R:3:forces:R:3 energy=-2.3617977037277544 pbc="F F F"
Cl       0.00000000       0.00000000       0.00000000       0.00000000       0.00000000       2.78719711
Cl       0.00000000       0.00000000       2.12626263       0.00000000       0.00000000      -2.78719711
2
Properties=species:S:1:pos:R:3:forces:R:3 energy=-2.1879574270752027 pbc="F F F"
Cl       0.00000000       0.00000000       0.00000000       0.00000000       0.00000000       3.00720763
Cl       0.00000000       0.00000000       2.18585859       0.00000000       0.00000000      -3.00720763
2
Properties=species:S:1:pos:R:3:forces:R:3 energy=-2.0075862293665354 pbc="F F F"
Cl       0.00000000       0.00000000       0.00000000       0.00000000       0.00000000       3.01477981
Cl       0.00000000       0.00000000       2.24545455       0.00000000       0.00000000      -3.01477981
2
Properties=species:S:1:pos:R:3:forces:R:3 energy=-1.8318300327828636 pbc="F F F"
Cl       0.00000000       0.00000000       0.00000000       0.00000000       0.00000000       2.86066437
Cl       0.00000000       0.00000000       2.30505051       0.00000000       0.00000000      -2.86066437
2
Properties=species:S:1:pos:R:3:forces:R:3 energy=-1.668892610722892 pbc="F F F"
Cl       0.00000000       0.00000000       0.00000000       0.00000000       0.00000000       2.59167743
Cl       0.00000000       0.00000000       2.36464646       0.00000000       0.00000000      -2.59167743
2
Properties=species:S:1:pos:R:3:forces:R:3 energy=-1.524430098699526 pbc="F F F"
Cl       0.00000000       0.00000000       0.00000000       0.00000000       0.00000000       2.24653268
Cl       0.00000000       0.00000000       2.42424242       0.00000000       0.00000000      -2.24653268
2
Properties=species:S:1:pos:R:3:forces:R:3 energy=-1.4019900086513777 pbc="F F F"
Cl       0.00000000       0.00000000       0.00000000       0.00000000       0.00000000       1.85787380
Cl       0.00000000       0.00000000       2.48383838       0.00000000       0.00000000      -1.85787380
2
Properties=species:S:1:pos:R:3:forces:R:3 energy=-1.3032134907571058 pbc="F F F"
Cl       0.00000000       0.00000000       0.00000000       0.00000000       0.00000000       1.45788014
Cl       0.00000000       0.00000000       2.54343434       0.00000000       0.00000000      -1.45788014
2
Properties=species:S:1:pos:R:3:forces:R:3 energy=-1.2277758419349816 pbc="F F F"
Cl       0.00000000       0.00000000       0.00000000       0.00000000       0.00000000       1.08022821
Cl       0.00000000       0.00000000       2.60303030       0.00000000       0.00000000      -1.08022821
2
Properties=species:S:1:pos:R:3:forces:R:3 energy=-1.1734043841303428 pbc="F F F"
Cl       0.00000000       0.00000000       0.00000000       0.00000000       0.00000000       0.75522280
Cl       0.00000000       0.00000000       2.66262626       0.00000000       0.00000000      -0.75522280
2
Properties=species:S:1:pos:R:3:forces:R:3 energy=-1.1363209685916758 pbc="F F F"
Cl       0.00000000       0.00000000       0.00000000       0.00000000       0.00000000       0.50209874
Cl       0.00000000       0.00000000       2.72222222       0.00000000       0.00000000      -0.50209874
2
Properties=species:S:1:pos:R:3:forces:R:3 energy=-1.112033528421183 pbc="F F F"
Cl       0.00000000       0.00000000       0.00000000       0.00000000       0.00000000       0.32533535
Cl       0.00000000       0.00000000       2.78181818       0.00000000       0.00000000      -0.32533535
2
Properties=species:S:1:pos:R:3:forces:R:3 energy=-1.0961807175093472 pbc="F F F"
Cl       0.00000000       0.00000000       0.00000000       0.00000000       0.00000000       0.21690486
Cl       0.00000000       0.00000000       2.84141414       0.00000000       0.00000000      -0.21690486
2
Properties=species:S:1:pos:R:3:forces:R:3 energy=-1.085125824620674 pbc="F F F"
Cl       0.00000000       0.00000000       0.00000000       0.00000000       0.00000000       0.16152529
Cl       0.00000000       0.00000000       2.90101010       0.00000000       0.00000000      -0.16152529
2
Properties=species:S:1:pos:R:3:forces:R:3 energy=-1.0762154222410123 pbc="F F F"
Cl       0.00000000       0.00000000       0.00000000       0.00000000       0.00000000       0.14214814
Cl       0.00000000       0.00000000       2.96060606       0.00000000       0.00000000      -0.14214814
2
Properties=species:S:1:pos:R:3:forces:R:3 energy=-1.0677657205296631 pbc="F F F"
Cl       0.00000000       0.00000000       0.00000000       0.00000000       0.00000000       0.14385954
Cl       0.00000000       0.00000000       3.02020202       0.00000000       0.00000000      -0.14385954
2
Properties=species:S:1:pos:R:3:forces:R:3 energy=-1.0588721526622464 pbc="F F F"
Cl       0.00000000       0.00000000       0.00000000       0.00000000       0.00000000       0.15556309
Cl       0.00000000       0.00000000       3.07979798       0.00000000       0.00000000      -0.15556309
2
Properties=species:S:1:pos:R:3:forces:R:3 energy=-1.049171328390776 pbc="F F F"
Cl       0.00000000       0.00000000       0.00000000       0.00000000       0.00000000       0.17004347
Cl       0.00000000       0.00000000       3.13939394       0.00000000       0.00000000      -0.17004347
2
Properties=species:S:1:pos:R:3:forces:R:3 energy=-1.0386323285920411 pbc="F F F"
Cl       0.00000000       0.00000000       0.00000000       0.00000000       0.00000000       0.18320505
Cl       0.00000000       0.00000000       3.19898990       0.00000000       0.00000000      -0.18320505
2
Properties=species:S:1:pos:R:3:forces:R:3 energy=-1.0273992305481041 pbc="F F F"
Cl       0.00000000       0.00000000       0.00000000       0.00000000       0.00000000       0.19316287
Cl       0.00000000       0.00000000       3.25858586       0.00000000       0.00000000      -0.19316287
2
Properties=species:S:1:pos:R:3:forces:R:3 energy=-1.0156819403315112 pbc="F F F"
Cl       0.00000000       0.00000000       0.00000000       0.00000000       0.00000000       0.19946013
Cl       0.00000000       0.00000000       3.31818182       0.00000000       0.00000000      -0.19946013
2
Properties=species:S:1:pos:R:3:forces:R:3 energy=-1.0036908534433306 pbc="F F F"
Cl       0.00000000       0.00000000       0.00000000       0.00000000       0.00000000       0.20247301
Cl       0.00000000       0.00000000       3.37777778       0.00000000       0.00000000      -0.20247301
2
Properties=species:S:1:pos:R:3:forces:R:3 energy=-0.9915982436746266 pbc="F F F"
Cl       0.00000000       0.00000000       0.00000000       0.00000000       0.00000000       0.20300068
Cl       0.00000000       0.00000000       3.43737374       0.00000000       0.00000000      -0.20300068
2
Properties=species:S:1:pos:R:3:forces:R:3 energy=-0.9795258910988822 pbc="F F F"
Cl       0.00000000       0.00000000       0.00000000       0.00000000       0.00000000       0.20196319
Cl       0.00000000       0.00000000       3.49696970       0.00000000       0.00000000      -0.20196319
2
Properties=species:S:1:pos:R:3:forces:R:3 energy=-0.9675403711371751 pbc="F F F"
Cl       0.00000000       0.00000000       0.00000000       0.00000000       0.00000000       0.20020744
Cl       0.00000000       0.00000000       3.55656566       0.00000000       0.00000000      -0.20020744
2
Properties=species:S:1:pos:R:3:forces:R:3 energy=-0.9556640269805082 pbc="F F F"
Cl       0.00000000       0.00000000       0.00000000       0.00000000       0.00000000       0.19838110
Cl       0.00000000       0.00000000       3.61616162       0.00000000       0.00000000      -0.19838110
2
Properties=species:S:1:pos:R:3:forces:R:3 energy=-0.9438883240300451 pbc="F F F"
Cl       0.00000000       0.00000000       0.00000000       0.00000000       0.00000000       0.19686475
Cl       0.00000000       0.00000000       3.67575758       0.00000000       0.00000000      -0.19686475
2
Properties=species:S:1:pos:R:3:forces:R:3 energy=-0.9321906594068707 pbc="F F F"
Cl       0.00000000       0.00000000       0.00000000       0.00000000       0.00000000       0.19577113
Cl       0.00000000       0.00000000       3.73535354       0.00000000       0.00000000      -0.19577113
2
Properties=species:S:1:pos:R:3:forces:R:3 energy=-0.920547879367051 pbc="F F F"
Cl       0.00000000       0.00000000       0.00000000       0.00000000       0.00000000       0.19498348
Cl       0.00000000       0.00000000       3.79494949       0.00000000       0.00000000      -0.19498348
2
Properties=species:S:1:pos:R:3:forces:R:3 energy=-0.9089494370889512 pbc="F F F"
Cl       0.00000000       0.00000000       0.00000000       0.00000000       0.00000000       0.19423726
Cl       0.00000000       0.00000000       3.85454545       0.00000000       0.00000000      -0.19423726
2
Properties=species:S:1:pos:R:3:forces:R:3 energy=-0.8974017378926201 pbc="F F F"
Cl       0.00000000       0.00000000       0.00000000       0.00000000       0.00000000       0.19322352
Cl       0.00000000       0.00000000       3.91414141       0.00000000       0.00000000      -0.19322352
2
Properties=species:S:1:pos:R:3:forces:R:3 energy=-0.8859289786645297 pbc="F F F"
Cl       0.00000000       0.00000000       0.00000000       0.00000000       0.00000000       0.19169472
Cl       0.00000000       0.00000000       3.97373737       0.00000000       0.00000000      -0.19169472
2
Properties=species:S:1:pos:R:3:forces:R:3 energy=-0.8745660519450034 pbc="F F F"
Cl       0.00000000       0.00000000       0.00000000       0.00000000       0.00000000       0.18954059
Cl       0.00000000       0.00000000       4.03333333       0.00000000       0.00000000      -0.18954059
2
Properties=species:S:1:pos:R:3:forces:R:3 energy=-0.8633482717545605 pbc="F F F"
Cl       0.00000000       0.00000000       0.00000000       0.00000000       0.00000000       0.18682206
Cl       0.00000000       0.00000000       4.09292929       0.00000000       0.00000000      -0.18682206
2
Properties=species:S:1:pos:R:3:forces:R:3 energy=-0.8523049204531694 pbc="F F F"
Cl       0.00000000       0.00000000       0.00000000       0.00000000       0.00000000       0.18375458
Cl       0.00000000       0.00000000       4.15252525       0.00000000       0.00000000      -0.18375458
2
Properties=species:S:1:pos:R:3:forces:R:3 energy=-0.841447482658581 pbc="F F F"
Cl       0.00000000       0.00000000       0.00000000       0.00000000       0.00000000       0.18064882
Cl       0.00000000       0.00000000       4.21212121       0.00000000       0.00000000      -0.18064882
2
Properties=species:S:1:pos:R:3:forces:R:3 energy=-0.8307670830385592 pbc="F F F"
Cl       0.00000000       0.00000000       0.00000000       0.00000000       0.00000000       0.17783676
Cl       0.00000000       0.00000000       4.27171717       0.00000000       0.00000000      -0.17783676
2
Properties=species:S:1:pos:R:3:forces:R:3 energy=-0.8202390295191482 pbc="F F F"
Cl       0.00000000       0.00000000       0.00000000       0.00000000       0.00000000       0.17559992
Cl       0.00000000       0.00000000       4.33131313       0.00000000       0.00000000      -0.17559992
2
Properties=species:S:1:pos:R:3:forces:R:3 energy=-0.8098225437718485 pbc="F F F"
Cl       0.00000000       0.00000000       0.00000000       0.00000000       0.00000000       0.17411305
Cl       0.00000000       0.00000000       4.39090909       0.00000000       0.00000000      -0.17411305
2
Properties=species:S:1:pos:R:3:forces:R:3 energy=-0.7994706617123135 pbc="F F F"
Cl       0.00000000       0.00000000       0.00000000       0.00000000       0.00000000       0.17340493
Cl       0.00000000       0.00000000       4.45050505       0.00000000       0.00000000      -0.17340493
2
Properties=species:S:1:pos:R:3:forces:R:3 energy=-0.7891413094608773 pbc="F F F"
Cl       0.00000000       0.00000000       0.00000000       0.00000000       0.00000000       0.17332512
Cl       0.00000000       0.00000000       4.51010101       0.00000000       0.00000000      -0.17332512
2
Properties=species:S:1:pos:R:3:forces:R:3 energy=-0.7788058671964891 pbc="F F F"
Cl       0.00000000       0.00000000       0.00000000       0.00000000       0.00000000       0.17351796
Cl       0.00000000       0.00000000       4.56969697       0.00000000       0.00000000      -0.17351796
2
Properties=species:S:1:pos:R:3:forces:R:3 energy=-0.7684646819954865 pbc="F F F"
Cl       0.00000000       0.00000000       0.00000000       0.00000000       0.00000000       0.17342745
Cl       0.00000000       0.00000000       4.62929293       0.00000000       0.00000000      -0.17342745
2
Properties=species:S:1:pos:R:3:forces:R:3 energy=-0.758154540586947 pbc="F F F"
Cl       0.00000000       0.00000000       0.00000000       0.00000000       0.00000000       0.17235789
Cl       0.00000000       0.00000000       4.68888889       0.00000000       0.00000000      -0.17235789
2
Properties=species:S:1:pos:R:3:forces:R:3 energy=-0.7479542151485179 pbc="F F F"
Cl       0.00000000       0.00000000       0.00000000       0.00000000       0.00000000       0.16962270
Cl       0.00000000       0.00000000       4.74848485       0.00000000       0.00000000      -0.16962270
2
Properties=species:S:1:pos:R:3:forces:R:3 energy=-0.7379789204704289 pbc="F F F"
Cl       0.00000000       0.00000000       0.00000000       0.00000000       0.00000000       0.16479397
Cl       0.00000000       0.00000000       4.80808081       0.00000000       0.00000000      -0.16479397
2
Properties=species:S:1:pos:R:3:forces:R:3 energy=-0.7283514149982636 pbc="F F F"
Cl       0.00000000       0.00000000       0.00000000       0.00000000       0.00000000       0.15801714
Cl       0.00000000       0.00000000       4.86767677       0.00000000       0.00000000      -0.15801714
2
Properties=species:S:1:pos:R:3:forces:R:3 energy=-0.7191630813757878 pbc="F F F"
Cl       0.00000000       0.00000000       0.00000000       0.00000000       0.00000000       0.15032426
Cl       0.00000000       0.00000000       4.92727273       0.00000000       0.00000000      -0.15032426
2
Properties=species:S:1:pos:R:3:forces:R:3 energy=-0.7104113625547567 pbc="F F F"
Cl       0.00000000       0.00000000       0.00000000       0.00000000       0.00000000       0.14379701
Cl       0.00000000       0.00000000       4.98686869       0.00000000       0.00000000      -0.14379701
2
Properties=species:S:1:pos:R:3:forces:R:3 energy=-0.7019423878645735 pbc="F F F"
Cl       0.00000000       0.00000000       0.00000000       0.00000000       0.00000000       0.14142004
Cl       0.00000000       0.00000000       5.04646465       0.00000000       0.00000000      -0.14142004
2
Properties=species:S:1:pos:R:3:forces:R:3 energy=-0.6934085325253209 pbc="F F F"
Cl       0.00000000       0.00000000       0.00000000       0.00000000       0.00000000       0.14642903
Cl       0.00000000       0.00000000       5.10606061       0.00000000       0.00000000      -0.14642903
2
Properties=species:S:1:pos:R:3:forces:R:3 energy=-0.6842958607309566 pbc="F F F"
Cl       0.00000000       0.00000000       0.00000000       0.00000000       0.00000000       0.16098861
Cl       0.00000000       0.00000000       5.16565657       0.00000000       0.00000000      -0.16098861
2
Properties=species:S:1:pos:R:3:forces:R:3 energy=-0.6740422020546359 pbc="F F F"
Cl       0.00000000       0.00000000       0.00000000       0.00000000       0.00000000       0.18429737
Cl       0.00000000       0.00000000       5.22525253       0.00000000       0.00000000      -0.18429737
2
Properties=species:S:1:pos:R:3:forces:R:3 energy=-0.6622641863326167 pbc="F F F"
Cl       0.00000000       0.00000000       0.00000000       0.00000000       0.00000000       0.21075159
Cl       0.00000000       0.00000000       5.28484848       0.00000000       0.00000000      -0.21075159
2
Properties=species:S:1:pos:R:3:forces:R:3 energy=-0.6490584942504651 pbc="F F F"
Cl       0.00000000       0.00000000       0.00000000       0.00000000       0.00000000       0.23040640
Cl       0.00000000       0.00000000       5.34444444       0.00000000       0.00000000      -0.23040640
2
Properties=species:S:1:pos:R:3:forces:R:3 energy=-0.6350685561284926 pbc="F F F"
Cl       0.00000000       0.00000000       0.00000000       0.00000000       0.00000000       0.23733857
Cl       0.00000000       0.00000000       5.40404040       0.00000000       0.00000000      -0.23733857
2
Properties=species:S:1:pos:R:3:forces:R:3 energy=-0.6207554657289853 pbc="F F F"
Cl       0.00000000       0.00000000       0.00000000       0.00000000       0.00000000       0.24515899
Cl       0.00000000       0.00000000       5.46363636       0.00000000       0.00000000      -0.24515899
2
Properties=species:S:1:pos:R:3:forces:R:3 energy=-0.6055182160952975 pbc="F F F"
Cl       0.00000000       0.00000000       0.00000000       0.00000000       0.00000000       0.26751381
Cl       0.00000000       0.00000000       5.52323232       0.00000000       0.00000000      -0.26751381
2
Properties=species:S:1:pos:R:3:forces:R:3 energy=-0.5892382360978384 pbc="F F F"
Cl       0.00000000       0.00000000       0.00000000       0.00000000       0.00000000       0.27239496
Cl       0.00000000       0.00000000       5.58282828       0.00000000       0.00000000      -0.27239496
2
Properties=species:S:1:pos:R:3:forces:R:3 energy=-0.5737885725162071 pbc="F F F"
Cl       0.00000000       0.00000000       0.00000000       0.00000000       0.00000000       0.24216239
Cl       0.00000000       0.00000000       5.64242424       0.00000000       0.00000000      -0.24216239
2
Properties=species:S:1:pos:R:3:forces:R:3 energy=-0.5603807122480947 pbc="F F F"
Cl       0.00000000       0.00000000       0.00000000       0.00000000       0.00000000       0.21163589
Cl       0.00000000       0.00000000       5.70202020       0.00000000       0.00000000      -0.21163589
2
Properties=species:S:1:pos:R:3:forces:R:3 energy=-0.5477669028570475 pbc="F F F"
Cl       0.00000000       0.00000000       0.00000000       0.00000000       0.00000000       0.21780196
Cl       0.00000000       0.00000000       5.76161616       0.00000000       0.00000000      -0.21780196
2
Properties=species:S:1:pos:R:3:forces:R:3 energy=-0.5346260011558809 pbc="F F F"
Cl       0.00000000       0.00000000       0.00000000       0.00000000       0.00000000       0.21262522
Cl       0.00000000       0.00000000       5.82121212       0.00000000       0.00000000      -0.21262522
2
Properties=species:S:1:pos:R:3:forces:R:3 energy=-0.524000623658588 pbc="F F F"
Cl       0.00000000       0.00000000       0.00000000       0.00000000       0.00000000       0.13505456
Cl       0.00000000       0.00000000       5.88080808       0.00000000       0.00000000      -0.13505456
2
Properties=species:S:1:pos:R:3:forces:R:3 energy=-0.5188298923180141 pbc="F F F"
Cl       0.00000000       0.00000000       0.00000000       0.00000000       0.00000000       0.04079917
Cl       0.00000000       0.00000000       5.94040404       0.00000000       0.00000000      -0.04079917
2
Properties=species:S:1:pos:R:3:forces:R:3 energy=-0.5179685592136144 pbc="F F F"
Cl       0.00000000       0.00000000       0.00000000       0.00000000       0.00000000       0.00142215
Cl       0.00000000       0.00000000       6.00000000       0.00000000       0.00000000      -0.00142215
