2
Properties=species:S:1:pos:R:3:forces:R:3 energy=60720.08461856513 pbc="F F F"
Eu       0.00000000       0.00000000       0.00000000       0.00000000       0.00000000 -1502270.62500000
Eu       0.00000000       0.00000000       0.10000000       0.00000000       0.00000000 1502270.62500000
2
Properties=species:S:1:pos:R:3:forces:R:3 energy=17186.170556065135 pbc="F F F"
Eu       0.00000000       0.00000000       0.00000000       0.00000000       0.00000000 -316373.84375000
Eu       0.00000000       0.00000000       0.15959596       0.00000000       0.00000000  316373.84375000
2
Properties=species:S:1:pos:R:3:forces:R:3 energy=6383.4889154401335 pbc="F F F"
Eu       0.00000000       0.00000000       0.00000000       0.00000000       0.00000000  -96576.70312500
Eu       0.00000000       0.00000000       0.21919192       0.00000000       0.00000000   96576.70312500
2
Properties=species:S:1:pos:R:3:forces:R:3 energy=2767.572655674509 pbc="F F F"
Eu       0.00000000       0.00000000       0.00000000       0.00000000       0.00000000  -36061.80859375
Eu       0.00000000       0.00000000       0.27878788       0.00000000       0.00000000   36061.80859375
2
Properties=species:S:1:pos:R:3:forces:R:3 energy=1340.7477045058017 pbc="F F F"
Eu       0.00000000       0.00000000       0.00000000       0.00000000       0.00000000  -15173.08203125
Eu       0.00000000       0.00000000       0.33838384       0.00000000       0.00000000   15173.08203125
2
Properties=species:S:1:pos:R:3:forces:R:3 energy=718.0645990370517 pbc="F F F"
Eu       0.00000000       0.00000000       0.00000000       0.00000000       0.00000000   -6911.65966797
Eu       0.00000000       0.00000000       0.39797980       0.00000000       0.00000000    6911.65966797
2
Properties=species:S:1:pos:R:3:forces:R:3 energy=426.63247013396955 pbc="F F F"
Eu       0.00000000       0.00000000       0.00000000       0.00000000       0.00000000   -3340.00610352
Eu       0.00000000       0.00000000       0.45757576       0.00000000       0.00000000    3340.00610352
2
Properties=species:S:1:pos:R:3:forces:R:3 energy=282.7405633988561 pbc="F F F"
Eu       0.00000000       0.00000000       0.00000000       0.00000000       0.00000000   -1691.17724609
Eu       0.00000000       0.00000000       0.51717172       0.00000000       0.00000000    1691.17724609
2
Properties=species:S:1:pos:R:3:forces:R:3 energy=208.61959172233645 pbc="F F F"
Eu       0.00000000       0.00000000       0.00000000       0.00000000       0.00000000    -888.37835693
Eu       0.00000000       0.00000000       0.57676768       0.00000000       0.00000000     888.37835693
2
Properties=species:S:1:pos:R:3:forces:R:3 energy=169.18796636879682 pbc="F F F"
Eu       0.00000000       0.00000000       0.00000000       0.00000000       0.00000000    -479.23321533
Eu       0.00000000       0.00000000       0.63636364       0.00000000       0.00000000     479.23321533
2
Properties=species:S:1:pos:R:3:forces:R:3 energy=147.62798408799907 pbc="F F F"
Eu       0.00000000       0.00000000       0.00000000       0.00000000       0.00000000    -268.71218872
Eu       0.00000000       0.00000000       0.69595960       0.00000000       0.00000000     268.71218872
2
Properties=species:S:1:pos:R:3:forces:R:3 energy=134.85125072123978 pbc="F F F"
Eu       0.00000000       0.00000000       0.00000000       0.00000000       0.00000000    -174.37326050
Eu       0.00000000       0.00000000       0.75555556       0.00000000       0.00000000     174.37326050
2
Properties=species:S:1:pos:R:3:forces:R:3 energy=125.75268661130443 pbc="F F F"
Eu       0.00000000       0.00000000       0.00000000       0.00000000       0.00000000    -136.54043579
Eu       0.00000000       0.00000000       0.81515152       0.00000000       0.00000000     136.54043579
2
Properties=species:S:1:pos:R:3:forces:R:3 energy=118.05871694493054 pbc="F F F"
Eu       0.00000000       0.00000000       0.00000000       0.00000000       0.00000000    -125.14179230
Eu       0.00000000       0.00000000       0.87474747       0.00000000       0.00000000     125.14179230
2
Properties=species:S:1:pos:R:3:forces:R:3 energy=110.57750823236003 pbc="F F F"
Eu       0.00000000       0.00000000       0.00000000       0.00000000       0.00000000    -126.85470581
Eu       0.00000000       0.00000000       0.93434343       0.00000000       0.00000000     126.85470581
2
Properties=species:S:1:pos:R:3:forces:R:3 energy=102.6882871581632 pbc="F F F"
Eu       0.00000000       0.00000000       0.00000000       0.00000000       0.00000000    -142.79283142
Eu       0.00000000       0.00000000       0.99393939       0.00000000       0.00000000     142.79283142
2
Properties=species:S:1:pos:R:3:forces:R:3 energy=93.34307247597214 pbc="F F F"
Eu       0.00000000       0.00000000       0.00000000       0.00000000       0.00000000    -165.80633545
Eu       0.00000000       0.00000000       1.05353535       0.00000000       0.00000000     165.80633545
2
Properties=species:S:1:pos:R:3:forces:R:3 energy=83.45546130539171 pbc="F F F"
Eu       0.00000000       0.00000000       0.00000000       0.00000000       0.00000000    -166.12460327
Eu       0.00000000       0.00000000       1.11313131       0.00000000       0.00000000     166.12460327
2
Properties=species:S:1:pos:R:3:forces:R:3 energy=71.29622849723398 pbc="F F F"
Eu       0.00000000       0.00000000       0.00000000       0.00000000       0.00000000    -228.18626404
Eu       0.00000000       0.00000000       1.17272727       0.00000000       0.00000000     228.18626404
2
Properties=species:S:1:pos:R:3:forces:R:3 energy=57.93547294745901 pbc="F F F"
Eu       0.00000000       0.00000000       0.00000000       0.00000000       0.00000000    -219.59997559
Eu       0.00000000       0.00000000       1.23232323       0.00000000       0.00000000     219.59997559
2
Properties=species:S:1:pos:R:3:forces:R:3 energy=45.37845132473795 pbc="F F F"
Eu       0.00000000       0.00000000       0.00000000       0.00000000       0.00000000    -200.15112305
Eu       0.00000000       0.00000000       1.29191919       0.00000000       0.00000000     200.15112305
2
Properties=species:S:1:pos:R:3:forces:R:3 energy=34.184527979596666 pbc="F F F"
Eu       0.00000000       0.00000000       0.00000000       0.00000000       0.00000000    -175.03840637
Eu       0.00000000       0.00000000       1.35151515       0.00000000       0.00000000     175.03840637
2
Properties=species:S:1:pos:R:3:forces:R:3 energy=24.547300724621202 pbc="F F F"
Eu       0.00000000       0.00000000       0.00000000       0.00000000       0.00000000    -148.26556396
Eu       0.00000000       0.00000000       1.41111111       0.00000000       0.00000000     148.26556396
2
Properties=species:S:1:pos:R:3:forces:R:3 energy=16.50772800236643 pbc="F F F"
Eu       0.00000000       0.00000000       0.00000000       0.00000000       0.00000000    -121.69145966
Eu       0.00000000       0.00000000       1.47070707       0.00000000       0.00000000     121.69145966
2
Properties=species:S:1:pos:R:3:forces:R:3 energy=10.024387957419608 pbc="F F F"
Eu       0.00000000       0.00000000       0.00000000       0.00000000       0.00000000     -96.05605316
Eu       0.00000000       0.00000000       1.53030303       0.00000000       0.00000000      96.05605316
2
Properties=species:S:1:pos:R:3:forces:R:3 energy=5.011541485716772 pbc="F F F"
Eu       0.00000000       0.00000000       0.00000000       0.00000000       0.00000000     -72.91556549
Eu       0.00000000       0.00000000       1.58989899       0.00000000       0.00000000      72.91556549
2
Properties=species:S:1:pos:R:3:forces:R:3 energy=1.2094916869973225 pbc="F F F"
Eu       0.00000000       0.00000000       0.00000000       0.00000000       0.00000000     -55.85576248
Eu       0.00000000       0.00000000       1.64949495       0.00000000       0.00000000      55.85576248
2
Properties=species:S:1:pos:R:3:forces:R:3 energy=-1.7748497288128635 pbc="F F F"
Eu       0.00000000       0.00000000       0.00000000       0.00000000       0.00000000     -45.18535995
Eu       0.00000000       0.00000000       1.70909091       0.00000000       0.00000000      45.18535995
2
Properties=species:S:1:pos:R:3:forces:R:3 energy=-4.253915950658661 pbc="F F F"
Eu       0.00000000       0.00000000       0.00000000       0.00000000       0.00000000     -38.43944550
Eu       0.00000000       0.00000000       1.76868687       0.00000000       0.00000000      38.43944550
2
Properties=species:S:1:pos:R:3:forces:R:3 energy=-6.38786886505477 pbc="F F F"
Eu       0.00000000       0.00000000       0.00000000       0.00000000       0.00000000     -33.32231140
Eu       0.00000000       0.00000000       1.82828283       0.00000000       0.00000000      33.32231140
2
Properties=species:S:1:pos:R:3:forces:R:3 energy=-8.237733074477267 pbc="F F F"
Eu       0.00000000       0.00000000       0.00000000       0.00000000       0.00000000     -28.84263611
Eu       0.00000000       0.00000000       1.88787879       0.00000000       0.00000000      28.84263611
2
Properties=species:S:1:pos:R:3:forces:R:3 energy=-9.835839956901937 pbc="F F F"
Eu       0.00000000       0.00000000       0.00000000       0.00000000       0.00000000     -24.87242699
Eu       0.00000000       0.00000000       1.94747475       0.00000000       0.00000000      24.87242699
2
Properties=species:S:1:pos:R:3:forces:R:3 energy=-11.211090555466674 pbc="F F F"
Eu       0.00000000       0.00000000       0.00000000       0.00000000       0.00000000     -21.33919525
Eu       0.00000000       0.00000000       2.00707071       0.00000000       0.00000000      21.33919525
2
Properties=species:S:1:pos:R:3:forces:R:3 energy=-12.384648633203122 pbc="F F F"
Eu       0.00000000       0.00000000       0.00000000       0.00000000       0.00000000     -18.07826996
Eu       0.00000000       0.00000000       2.06666667       0.00000000       0.00000000      18.07826996
2
Properties=species:S:1:pos:R:3:forces:R:3 energy=-13.369352496737946 pbc="F F F"
Eu       0.00000000       0.00000000       0.00000000       0.00000000       0.00000000     -14.99792194
Eu       0.00000000       0.00000000       2.12626263       0.00000000       0.00000000      14.99792194
2
Properties=species:S:1:pos:R:3:forces:R:3 energy=-14.176787305639117 pbc="F F F"
Eu       0.00000000       0.00000000       0.00000000       0.00000000       0.00000000     -12.14728737
Eu       0.00000000       0.00000000       2.18585859       0.00000000       0.00000000      12.14728737
2
Properties=species:S:1:pos:R:3:forces:R:3 energy=-14.824303142703416 pbc="F F F"
Eu       0.00000000       0.00000000       0.00000000       0.00000000       0.00000000      -9.65218544
Eu       0.00000000       0.00000000       2.24545455       0.00000000       0.00000000       9.65218544
2
Properties=species:S:1:pos:R:3:forces:R:3 energy=-15.336065212119417 pbc="F F F"
Eu       0.00000000       0.00000000       0.00000000       0.00000000       0.00000000      -7.59713125
Eu       0.00000000       0.00000000       2.30505051       0.00000000       0.00000000       7.59713125
2
Properties=species:S:1:pos:R:3:forces:R:3 energy=-15.738383632983595 pbc="F F F"
Eu       0.00000000       0.00000000       0.00000000       0.00000000       0.00000000      -5.97132063
Eu       0.00000000       0.00000000       2.36464646       0.00000000       0.00000000       5.97132063
2
Properties=species:S:1:pos:R:3:forces:R:3 energy=-16.055083337822897 pbc="F F F"
Eu       0.00000000       0.00000000       0.00000000       0.00000000       0.00000000      -4.71242809
Eu       0.00000000       0.00000000       2.42424242       0.00000000       0.00000000       4.71242809
2
Properties=species:S:1:pos:R:3:forces:R:3 energy=-16.306061594177823 pbc="F F F"
Eu       0.00000000       0.00000000       0.00000000       0.00000000       0.00000000      -3.75539875
Eu       0.00000000       0.00000000       2.48383838       0.00000000       0.00000000       3.75539875
2
Properties=species:S:1:pos:R:3:forces:R:3 energy=-16.507461452950768 pbc="F F F"
Eu       0.00000000       0.00000000       0.00000000       0.00000000       0.00000000      -3.03814244
Eu       0.00000000       0.00000000       2.54343434       0.00000000       0.00000000       3.03814244
2
Properties=species:S:1:pos:R:3:forces:R:3 energy=-16.671711390750595 pbc="F F F"
Eu       0.00000000       0.00000000       0.00000000       0.00000000       0.00000000      -2.49873161
Eu       0.00000000       0.00000000       2.60303030       0.00000000       0.00000000       2.49873161
2
Properties=species:S:1:pos:R:3:forces:R:3 energy=-16.80774114756687 pbc="F F F"
Eu       0.00000000       0.00000000       0.00000000       0.00000000       0.00000000      -2.08316851
Eu       0.00000000       0.00000000       2.66262626       0.00000000       0.00000000       2.08316851
2
Properties=species:S:1:pos:R:3:forces:R:3 energy=-16.921674746894958 pbc="F F F"
Eu       0.00000000       0.00000000       0.00000000       0.00000000       0.00000000      -1.75192106
Eu       0.00000000       0.00000000       2.72222222       0.00000000       0.00000000       1.75192106
2
Properties=species:S:1:pos:R:3:forces:R:3 energy=-17.017704995917374 pbc="F F F"
Eu       0.00000000       0.00000000       0.00000000       0.00000000       0.00000000      -1.47886789
Eu       0.00000000       0.00000000       2.78181818       0.00000000       0.00000000       1.47886789
2
Properties=species:S:1:pos:R:3:forces:R:3 energy=-17.098765847911746 pbc="F F F"
Eu       0.00000000       0.00000000       0.00000000       0.00000000       0.00000000      -1.24739921
Eu       0.00000000       0.00000000       2.84141414       0.00000000       0.00000000       1.24739921
2
Properties=species:S:1:pos:R:3:forces:R:3 energy=-17.16700721453129 pbc="F F F"
Eu       0.00000000       0.00000000       0.00000000       0.00000000       0.00000000      -1.04749429
Eu       0.00000000       0.00000000       2.90101010       0.00000000       0.00000000       1.04749429
2
Properties=species:S:1:pos:R:3:forces:R:3 energy=-17.224134999400196 pbc="F F F"
Eu       0.00000000       0.00000000       0.00000000       0.00000000       0.00000000      -0.87366825
Eu       0.00000000       0.00000000       2.96060606       0.00000000       0.00000000       0.87366825
2
Properties=species:S:1:pos:R:3:forces:R:3 energy=-17.271602950898455 pbc="F F F"
Eu       0.00000000       0.00000000       0.00000000       0.00000000       0.00000000      -0.72307301
Eu       0.00000000       0.00000000       3.02020202       0.00000000       0.00000000       0.72307301
2
Properties=species:S:1:pos:R:3:forces:R:3 energy=-17.310741945925077 pbc="F F F"
Eu       0.00000000       0.00000000       0.00000000       0.00000000       0.00000000      -0.59367990
Eu       0.00000000       0.00000000       3.07979798       0.00000000       0.00000000       0.59367990
2
Properties=species:S:1:pos:R:3:forces:R:3 energy=-17.34274289217369 pbc="F F F"
Eu       0.00000000       0.00000000       0.00000000       0.00000000       0.00000000      -0.48328322
Eu       0.00000000       0.00000000       3.13939394       0.00000000       0.00000000       0.48328322
2
Properties=species:S:1:pos:R:3:forces:R:3 energy=-17.368676284377443 pbc="F F F"
Eu       0.00000000       0.00000000       0.00000000       0.00000000       0.00000000      -0.38965908
Eu       0.00000000       0.00000000       3.19898990       0.00000000       0.00000000       0.38965908
2
Properties=species:S:1:pos:R:3:forces:R:3 energy=-17.389492033217454 pbc="F F F"
Eu       0.00000000       0.00000000       0.00000000       0.00000000       0.00000000      -0.31138569
Eu       0.00000000       0.00000000       3.25858586       0.00000000       0.00000000       0.31138569
2
Properties=species:S:1:pos:R:3:forces:R:3 energy=-17.406097611136097 pbc="F F F"
Eu       0.00000000       0.00000000       0.00000000       0.00000000       0.00000000      -0.24857812
Eu       0.00000000       0.00000000       3.31818182       0.00000000       0.00000000       0.24857812
2
Properties=species:S:1:pos:R:3:forces:R:3 energy=-17.41946051374288 pbc="F F F"
Eu       0.00000000       0.00000000       0.00000000       0.00000000       0.00000000      -0.20293272
Eu       0.00000000       0.00000000       3.37777778       0.00000000       0.00000000       0.20293272
2
Properties=species:S:1:pos:R:3:forces:R:3 energy=-17.43067270508747 pbc="F F F"
Eu       0.00000000       0.00000000       0.00000000       0.00000000       0.00000000      -0.17676306
Eu       0.00000000       0.00000000       3.43737374       0.00000000       0.00000000       0.17676306
2
Properties=species:S:1:pos:R:3:forces:R:3 energy=-17.44092418378238 pbc="F F F"
Eu       0.00000000       0.00000000       0.00000000       0.00000000       0.00000000      -0.17024130
Eu       0.00000000       0.00000000       3.49696970       0.00000000       0.00000000       0.17024130
2
Properties=species:S:1:pos:R:3:forces:R:3 energy=-17.451211651332635 pbc="F F F"
Eu       0.00000000       0.00000000       0.00000000       0.00000000       0.00000000      -0.17566329
Eu       0.00000000       0.00000000       3.55656566       0.00000000       0.00000000       0.17566329
2
Properties=species:S:1:pos:R:3:forces:R:3 energy=-17.46167906529129 pbc="F F F"
Eu       0.00000000       0.00000000       0.00000000       0.00000000       0.00000000      -0.17155264
Eu       0.00000000       0.00000000       3.61616162       0.00000000       0.00000000       0.17155264
2
Properties=species:S:1:pos:R:3:forces:R:3 energy=-17.470910769477943 pbc="F F F"
Eu       0.00000000       0.00000000       0.00000000       0.00000000       0.00000000      -0.13062109
Eu       0.00000000       0.00000000       3.67575758       0.00000000       0.00000000       0.13062109
2
Properties=species:S:1:pos:R:3:forces:R:3 energy=-17.476393859505457 pbc="F F F"
Eu       0.00000000       0.00000000       0.00000000       0.00000000       0.00000000      -0.04805075
Eu       0.00000000       0.00000000       3.73535354       0.00000000       0.00000000       0.04805075
2
Properties=species:S:1:pos:R:3:forces:R:3 energy=-17.4763591144937 pbc="F F F"
Eu       0.00000000       0.00000000       0.00000000       0.00000000       0.00000000       0.04856669
Eu       0.00000000       0.00000000       3.79494949       0.00000000       0.00000000      -0.04856669
2
Properties=species:S:1:pos:R:3:forces:R:3 energy=-17.470924621814454 pbc="F F F"
Eu       0.00000000       0.00000000       0.00000000       0.00000000       0.00000000       0.12994376
Eu       0.00000000       0.00000000       3.85454545       0.00000000       0.00000000      -0.12994376
2
Properties=species:S:1:pos:R:3:forces:R:3 energy=-17.461352128982345 pbc="F F F"
Eu       0.00000000       0.00000000       0.00000000       0.00000000       0.00000000       0.18763115
Eu       0.00000000       0.00000000       3.91414141       0.00000000       0.00000000      -0.18763115
2
Properties=species:S:1:pos:R:3:forces:R:3 energy=-17.448928033644115 pbc="F F F"
Eu       0.00000000       0.00000000       0.00000000       0.00000000       0.00000000       0.22684661
Eu       0.00000000       0.00000000       3.97373737       0.00000000       0.00000000      -0.22684661
2
Properties=species:S:1:pos:R:3:forces:R:3 energy=-17.43454006244812 pbc="F F F"
Eu       0.00000000       0.00000000       0.00000000       0.00000000       0.00000000       0.25459227
Eu       0.00000000       0.00000000       4.03333333       0.00000000       0.00000000      -0.25459227
2
Properties=species:S:1:pos:R:3:forces:R:3 energy=-17.418717105099905 pbc="F F F"
Eu       0.00000000       0.00000000       0.00000000       0.00000000       0.00000000       0.27549407
Eu       0.00000000       0.00000000       4.09292929       0.00000000       0.00000000      -0.27549407
2
Properties=species:S:1:pos:R:3:forces:R:3 energy=-17.40178763017274 pbc="F F F"
Eu       0.00000000       0.00000000       0.00000000       0.00000000       0.00000000       0.29208872
Eu       0.00000000       0.00000000       4.15252525       0.00000000       0.00000000      -0.29208872
2
Properties=species:S:1:pos:R:3:forces:R:3 energy=-17.38395916698579 pbc="F F F"
Eu       0.00000000       0.00000000       0.00000000       0.00000000       0.00000000       0.30580729
Eu       0.00000000       0.00000000       4.21212121       0.00000000       0.00000000      -0.30580729
2
Properties=species:S:1:pos:R:3:forces:R:3 energy=-17.365375383743253 pbc="F F F"
Eu       0.00000000       0.00000000       0.00000000       0.00000000       0.00000000       0.31756920
Eu       0.00000000       0.00000000       4.27171717       0.00000000       0.00000000      -0.31756920
2
Properties=species:S:1:pos:R:3:forces:R:3 energy=-17.346133858057534 pbc="F F F"
Eu       0.00000000       0.00000000       0.00000000       0.00000000       0.00000000       0.32801551
Eu       0.00000000       0.00000000       4.33131313       0.00000000       0.00000000      -0.32801551
2
Properties=species:S:1:pos:R:3:forces:R:3 energy=-17.326296188637528 pbc="F F F"
Eu       0.00000000       0.00000000       0.00000000       0.00000000       0.00000000       0.33758432
Eu       0.00000000       0.00000000       4.39090909       0.00000000       0.00000000      -0.33758432
2
Properties=species:S:1:pos:R:3:forces:R:3 energy=-17.305908126507838 pbc="F F F"
Eu       0.00000000       0.00000000       0.00000000       0.00000000       0.00000000       0.34653649
Eu       0.00000000       0.00000000       4.45050505       0.00000000       0.00000000      -0.34653649
2
Properties=species:S:1:pos:R:3:forces:R:3 energy=-17.28500349709232 pbc="F F F"
Eu       0.00000000       0.00000000       0.00000000       0.00000000       0.00000000       0.35495719
Eu       0.00000000       0.00000000       4.51010101       0.00000000       0.00000000      -0.35495719
2
Properties=species:S:1:pos:R:3:forces:R:3 energy=-17.26361243783043 pbc="F F F"
Eu       0.00000000       0.00000000       0.00000000       0.00000000       0.00000000       0.36276805
Eu       0.00000000       0.00000000       4.56969697       0.00000000       0.00000000      -0.36276805
2
Properties=species:S:1:pos:R:3:forces:R:3 energy=-17.241780547691327 pbc="F F F"
Eu       0.00000000       0.00000000       0.00000000       0.00000000       0.00000000       0.36971450
Eu       0.00000000       0.00000000       4.62929293       0.00000000       0.00000000      -0.36971450
2
Properties=species:S:1:pos:R:3:forces:R:3 energy=-17.219570921235352 pbc="F F F"
Eu       0.00000000       0.00000000       0.00000000       0.00000000       0.00000000       0.37540907
Eu       0.00000000       0.00000000       4.68888889       0.00000000       0.00000000      -0.37540907
2
Properties=species:S:1:pos:R:3:forces:R:3 energy=-17.197068368792547 pbc="F F F"
Eu       0.00000000       0.00000000       0.00000000       0.00000000       0.00000000       0.37937635
Eu       0.00000000       0.00000000       4.74848485       0.00000000       0.00000000      -0.37937635
2
Properties=species:S:1:pos:R:3:forces:R:3 energy=-17.17439435846951 pbc="F F F"
Eu       0.00000000       0.00000000       0.00000000       0.00000000       0.00000000       0.38118401
Eu       0.00000000       0.00000000       4.80808081       0.00000000       0.00000000      -0.38118401
2
Properties=species:S:1:pos:R:3:forces:R:3 energy=-17.15168258808452 pbc="F F F"
Eu       0.00000000       0.00000000       0.00000000       0.00000000       0.00000000       0.38059860
Eu       0.00000000       0.00000000       4.86767677       0.00000000       0.00000000      -0.38059860
2
Properties=species:S:1:pos:R:3:forces:R:3 energy=-17.129074993072237 pbc="F F F"
Eu       0.00000000       0.00000000       0.00000000       0.00000000       0.00000000       0.37775254
Eu       0.00000000       0.00000000       4.92727273       0.00000000       0.00000000      -0.37775254
2
Properties=species:S:1:pos:R:3:forces:R:3 energy=-17.106691184556084 pbc="F F F"
Eu       0.00000000       0.00000000       0.00000000       0.00000000       0.00000000       0.37325978
Eu       0.00000000       0.00000000       4.98686869       0.00000000       0.00000000      -0.37325978
2
Properties=species:S:1:pos:R:3:forces:R:3 energy=-17.08460013689401 pbc="F F F"
Eu       0.00000000       0.00000000       0.00000000       0.00000000       0.00000000       0.36813557
Eu       0.00000000       0.00000000       5.04646465       0.00000000       0.00000000      -0.36813557
2
Properties=species:S:1:pos:R:3:forces:R:3 energy=-17.06280256537442 pbc="F F F"
Eu       0.00000000       0.00000000       0.00000000       0.00000000       0.00000000       0.36351570
Eu       0.00000000       0.00000000       5.10606061       0.00000000       0.00000000      -0.36351570
2
Properties=species:S:1:pos:R:3:forces:R:3 energy=-17.04124463245268 pbc="F F F"
Eu       0.00000000       0.00000000       0.00000000       0.00000000       0.00000000       0.36003020
Eu       0.00000000       0.00000000       5.16565657       0.00000000       0.00000000      -0.36003020
2
Properties=species:S:1:pos:R:3:forces:R:3 energy=-17.019882588528386 pbc="F F F"
Eu       0.00000000       0.00000000       0.00000000       0.00000000       0.00000000       0.35680130
Eu       0.00000000       0.00000000       5.22525253       0.00000000       0.00000000      -0.35680130
2
Properties=species:S:1:pos:R:3:forces:R:3 energy=-16.99877995169095 pbc="F F F"
Eu       0.00000000       0.00000000       0.00000000       0.00000000       0.00000000       0.35048509
Eu       0.00000000       0.00000000       5.28484848       0.00000000       0.00000000      -0.35048509
2
Properties=species:S:1:pos:R:3:forces:R:3 energy=-16.97826199662322 pbc="F F F"
Eu       0.00000000       0.00000000       0.00000000       0.00000000       0.00000000       0.33657360
Eu       0.00000000       0.00000000       5.34444444       0.00000000       0.00000000      -0.33657360
2
Properties=species:S:1:pos:R:3:forces:R:3 energy=-16.95877645479486 pbc="F F F"
Eu       0.00000000       0.00000000       0.00000000       0.00000000       0.00000000       0.31751454
Eu       0.00000000       0.00000000       5.40404040       0.00000000       0.00000000      -0.31751454
2
Properties=species:S:1:pos:R:3:forces:R:3 energy=-16.94019906849759 pbc="F F F"
Eu       0.00000000       0.00000000       0.00000000       0.00000000       0.00000000       0.30868691
Eu       0.00000000       0.00000000       5.46363636       0.00000000       0.00000000      -0.30868691
2
Properties=species:S:1:pos:R:3:forces:R:3 energy=-16.921762993603195 pbc="F F F"
Eu       0.00000000       0.00000000       0.00000000       0.00000000       0.00000000       0.30978161
Eu       0.00000000       0.00000000       5.52323232       0.00000000       0.00000000      -0.30978161
2
Properties=species:S:1:pos:R:3:forces:R:3 energy=-16.903672334143526 pbc="F F F"
Eu       0.00000000       0.00000000       0.00000000       0.00000000       0.00000000       0.29262477
Eu       0.00000000       0.00000000       5.58282828       0.00000000       0.00000000      -0.29262477
2
Properties=species:S:1:pos:R:3:forces:R:3 energy=-16.887283169368196 pbc="F F F"
Eu       0.00000000       0.00000000       0.00000000       0.00000000       0.00000000       0.25666070
Eu       0.00000000       0.00000000       5.64242424       0.00000000       0.00000000      -0.25666070
2
Properties=species:S:1:pos:R:3:forces:R:3 energy=-16.872746007478007 pbc="F F F"
Eu       0.00000000       0.00000000       0.00000000       0.00000000       0.00000000       0.23725821
Eu       0.00000000       0.00000000       5.70202020       0.00000000       0.00000000      -0.23725821
2
Properties=species:S:1:pos:R:3:forces:R:3 energy=-16.85813978598919 pbc="F F F"
Eu       0.00000000       0.00000000       0.00000000       0.00000000       0.00000000       0.25790092
Eu       0.00000000       0.00000000       5.76161616       0.00000000       0.00000000      -0.25790092
2
Properties=species:S:1:pos:R:3:forces:R:3 energy=-16.842409118935866 pbc="F F F"
Eu       0.00000000       0.00000000       0.00000000       0.00000000       0.00000000       0.25815064
Eu       0.00000000       0.00000000       5.82121212       0.00000000       0.00000000      -0.25815064
2
Properties=species:S:1:pos:R:3:forces:R:3 energy=-16.82906440116222 pbc="F F F"
Eu       0.00000000       0.00000000       0.00000000       0.00000000       0.00000000       0.17992380
Eu       0.00000000       0.00000000       5.88080808       0.00000000       0.00000000      -0.17992380
2
Properties=species:S:1:pos:R:3:forces:R:3 energy=-16.82134285850542 pbc="F F F"
Eu       0.00000000       0.00000000       0.00000000       0.00000000       0.00000000       0.08115044
Eu       0.00000000       0.00000000       5.94040404       0.00000000       0.00000000      -0.08115044
2
Properties=species:S:1:pos:R:3:forces:R:3 energy=-16.81818012611282 pbc="F F F"
Eu       0.00000000       0.00000000       0.00000000       0.00000000       0.00000000       0.03898740
Eu       0.00000000       0.00000000       6.00000000       0.00000000       0.00000000      -0.03898740
