2
Properties=species:S:1:pos:R:3:forces:R:3 energy=3509.7520213375237 pbc="F F F"
F        0.00000000       0.00000000       0.00000000       0.00000000       0.00000000  -50295.16406250
F        0.00000000       0.00000000       0.10000000       0.00000000       0.00000000   50295.16406250
2
Properties=species:S:1:pos:R:3:forces:R:3 energy=1888.5391307125237 pbc="F F F"
F        0.00000000       0.00000000       0.00000000       0.00000000       0.00000000  -13918.48730469
F        0.00000000       0.00000000       0.15959596       0.00000000       0.00000000   13918.48730469
2
Properties=species:S:1:pos:R:3:forces:R:3 energy=1345.9220652828362 pbc="F F F"
F        0.00000000       0.00000000       0.00000000       0.00000000       0.00000000   -6122.81005859
F        0.00000000       0.00000000       0.21919192       0.00000000       0.00000000    6122.81005859
2
Properties=species:S:1:pos:R:3:forces:R:3 energy=1034.8772654793368 pbc="F F F"
F        0.00000000       0.00000000       0.00000000       0.00000000       0.00000000   -4891.46093750
F        0.00000000       0.00000000       0.27878788       0.00000000       0.00000000    4891.46093750
2
Properties=species:S:1:pos:R:3:forces:R:3 energy=738.1018138219523 pbc="F F F"
F        0.00000000       0.00000000       0.00000000       0.00000000       0.00000000   -3651.55712891
F        0.00000000       0.00000000       0.33838384       0.00000000       0.00000000    3651.55712891
2
Properties=species:S:1:pos:R:3:forces:R:3 energy=536.0904002540692 pbc="F F F"
F        0.00000000       0.00000000       0.00000000       0.00000000       0.00000000   -3298.64550781
F        0.00000000       0.00000000       0.39797980       0.00000000       0.00000000    3298.64550781
2
Properties=species:S:1:pos:R:3:forces:R:3 energy=364.667213012465 pbc="F F F"
F        0.00000000       0.00000000       0.00000000       0.00000000       0.00000000   -2544.19165039
F        0.00000000       0.00000000       0.45757576       0.00000000       0.00000000    2544.19165039
2
Properties=species:S:1:pos:R:3:forces:R:3 energy=236.304053859704 pbc="F F F"
F        0.00000000       0.00000000       0.00000000       0.00000000       0.00000000   -1766.59289551
F        0.00000000       0.00000000       0.51717172       0.00000000       0.00000000    1766.59289551
2
Properties=species:S:1:pos:R:3:forces:R:3 energy=153.30635798476573 pbc="F F F"
F        0.00000000       0.00000000       0.00000000       0.00000000       0.00000000   -1121.64245605
F        0.00000000       0.00000000       0.57676768       0.00000000       0.00000000    1121.64245605
2
Properties=species:S:1:pos:R:3:forces:R:3 energy=97.46287509395782 pbc="F F F"
F        0.00000000       0.00000000       0.00000000       0.00000000       0.00000000    -756.88610840
F        0.00000000       0.00000000       0.63636364       0.00000000       0.00000000     756.88610840
2
Properties=species:S:1:pos:R:3:forces:R:3 energy=61.80143342006806 pbc="F F F"
F        0.00000000       0.00000000       0.00000000       0.00000000       0.00000000    -460.91278076
F        0.00000000       0.00000000       0.69595960       0.00000000       0.00000000     460.91278076
2
Properties=species:S:1:pos:R:3:forces:R:3 energy=40.12993627308624 pbc="F F F"
F        0.00000000       0.00000000       0.00000000       0.00000000       0.00000000    -284.42214966
F        0.00000000       0.00000000       0.75555556       0.00000000       0.00000000     284.42214966
2
Properties=species:S:1:pos:R:3:forces:R:3 energy=26.38684689258233 pbc="F F F"
F        0.00000000       0.00000000       0.00000000       0.00000000       0.00000000    -185.48657227
F        0.00000000       0.00000000       0.81515152       0.00000000       0.00000000     185.48657227
2
Properties=species:S:1:pos:R:3:forces:R:3 energy=17.212778868122655 pbc="F F F"
F        0.00000000       0.00000000       0.00000000       0.00000000       0.00000000    -127.43479156
F        0.00000000       0.00000000       0.87474747       0.00000000       0.00000000     127.43479156
2
Properties=species:S:1:pos:R:3:forces:R:3 energy=10.775417752388762 pbc="F F F"
F        0.00000000       0.00000000       0.00000000       0.00000000       0.00000000     -90.99468231
F        0.00000000       0.00000000       0.93434343       0.00000000       0.00000000      90.99468231
2
Properties=species:S:1:pos:R:3:forces:R:3 energy=6.16238290349464 pbc="F F F"
F        0.00000000       0.00000000       0.00000000       0.00000000       0.00000000     -65.03440094
F        0.00000000       0.00000000       0.99393939       0.00000000       0.00000000      65.03440094
2
Properties=species:S:1:pos:R:3:forces:R:3 energy=2.915208324660095 pbc="F F F"
F        0.00000000       0.00000000       0.00000000       0.00000000       0.00000000     -44.65343475
F        0.00000000       0.00000000       1.05353535       0.00000000       0.00000000      44.65343475
2
Properties=species:S:1:pos:R:3:forces:R:3 energy=0.7629659458739931 pbc="F F F"
F        0.00000000       0.00000000       0.00000000       0.00000000       0.00000000     -28.20186996
F        0.00000000       0.00000000       1.11313131       0.00000000       0.00000000      28.20186996
2
Properties=species:S:1:pos:R:3:forces:R:3 energy=-0.5224083746662497 pbc="F F F"
F        0.00000000       0.00000000       0.00000000       0.00000000       0.00000000     -15.58036518
F        0.00000000       0.00000000       1.17272727       0.00000000       0.00000000      15.58036518
2
Properties=species:S:1:pos:R:3:forces:R:3 energy=-1.1757397827213323 pbc="F F F"
F        0.00000000       0.00000000       0.00000000       0.00000000       0.00000000      -7.08252287
F        0.00000000       0.00000000       1.23232323       0.00000000       0.00000000       7.08252287
2
Properties=species:S:1:pos:R:3:forces:R:3 energy=-1.453550624439753 pbc="F F F"
F        0.00000000       0.00000000       0.00000000       0.00000000       0.00000000      -2.89446664
F        0.00000000       0.00000000       1.29191919       0.00000000       0.00000000       2.89446664
2
Properties=species:S:1:pos:R:3:forces:R:3 energy=-1.5792577592578751 pbc="F F F"
F        0.00000000       0.00000000       0.00000000       0.00000000       0.00000000      -1.62808073
F        0.00000000       0.00000000       1.35151515       0.00000000       0.00000000       1.62808073
2
Properties=species:S:1:pos:R:3:forces:R:3 energy=-1.664242695522888 pbc="F F F"
F        0.00000000       0.00000000       0.00000000       0.00000000       0.00000000      -1.24110937
F        0.00000000       0.00000000       1.41111111       0.00000000       0.00000000       1.24110937
2
Properties=species:S:1:pos:R:3:forces:R:3 energy=-1.7226888148579655 pbc="F F F"
F        0.00000000       0.00000000       0.00000000       0.00000000       0.00000000      -0.66380310
F        0.00000000       0.00000000       1.47070707       0.00000000       0.00000000       0.66380310
2
Properties=species:S:1:pos:R:3:forces:R:3 energy=-1.7382575555240904 pbc="F F F"
F        0.00000000       0.00000000       0.00000000       0.00000000       0.00000000       0.16177894
F        0.00000000       0.00000000       1.53030303       0.00000000       0.00000000      -0.16177894
2
Properties=species:S:1:pos:R:3:forces:R:3 energy=-1.7037471099495833 pbc="F F F"
F        0.00000000       0.00000000       0.00000000       0.00000000       0.00000000       0.97365737
F        0.00000000       0.00000000       1.58989899       0.00000000       0.00000000      -0.97365737
2
Properties=species:S:1:pos:R:3:forces:R:3 energy=-1.6265961858478373 pbc="F F F"
F        0.00000000       0.00000000       0.00000000       0.00000000       0.00000000       1.56757569
F        0.00000000       0.00000000       1.64949495       0.00000000       0.00000000      -1.56757569
2
Properties=species:S:1:pos:R:3:forces:R:3 energy=-1.5234740652502239 pbc="F F F"
F        0.00000000       0.00000000       0.00000000       0.00000000       0.00000000       1.83355236
F        0.00000000       0.00000000       1.70909091       0.00000000       0.00000000      -1.83355236
2
Properties=species:S:1:pos:R:3:forces:R:3 energy=-1.415123785082327 pbc="F F F"
F        0.00000000       0.00000000       0.00000000       0.00000000       0.00000000       1.74728405
F        0.00000000       0.00000000       1.76868687       0.00000000       0.00000000      -1.74728405
2
Properties=species:S:1:pos:R:3:forces:R:3 energy=-1.3206358214755005 pbc="F F F"
F        0.00000000       0.00000000       0.00000000       0.00000000       0.00000000       1.39097369
F        0.00000000       0.00000000       1.82828283       0.00000000       0.00000000      -1.39097369
2
Properties=species:S:1:pos:R:3:forces:R:3 energy=-1.2515048465994338 pbc="F F F"
F        0.00000000       0.00000000       0.00000000       0.00000000       0.00000000       0.92441052
F        0.00000000       0.00000000       1.88787879       0.00000000       0.00000000      -0.92441052
2
Properties=species:S:1:pos:R:3:forces:R:3 energy=-1.2097363619838464 pbc="F F F"
F        0.00000000       0.00000000       0.00000000       0.00000000       0.00000000       0.49122962
F        0.00000000       0.00000000       1.94747475       0.00000000       0.00000000      -0.49122962
2
Properties=species:S:1:pos:R:3:forces:R:3 energy=-1.1908339465227753 pbc="F F F"
F        0.00000000       0.00000000       0.00000000       0.00000000       0.00000000       0.16263841
F        0.00000000       0.00000000       2.00707071       0.00000000       0.00000000      -0.16263841
2
Properties=species:S:1:pos:R:3:forces:R:3 energy=-1.1880966346001893 pbc="F F F"
F        0.00000000       0.00000000       0.00000000       0.00000000       0.00000000      -0.05345501
F        0.00000000       0.00000000       2.06666667       0.00000000       0.00000000       0.05345501
2
Properties=species:S:1:pos:R:3:forces:R:3 energy=-1.195410497857882 pbc="F F F"
F        0.00000000       0.00000000       0.00000000       0.00000000       0.00000000      -0.17932184
F        0.00000000       0.00000000       2.12626263       0.00000000       0.00000000       0.17932184
2
Properties=species:S:1:pos:R:3:forces:R:3 energy=-1.2082243067388474 pbc="F F F"
F        0.00000000       0.00000000       0.00000000       0.00000000       0.00000000      -0.24222687
F        0.00000000       0.00000000       2.18585859       0.00000000       0.00000000       0.24222687
2
Properties=species:S:1:pos:R:3:forces:R:3 energy=-1.2234686849264291 pbc="F F F"
F        0.00000000       0.00000000       0.00000000       0.00000000       0.00000000      -0.26391989
F        0.00000000       0.00000000       2.24545455       0.00000000       0.00000000       0.26391989
2
Properties=species:S:1:pos:R:3:forces:R:3 energy=-1.2391626381854268 pbc="F F F"
F        0.00000000       0.00000000       0.00000000       0.00000000       0.00000000      -0.25933903
F        0.00000000       0.00000000       2.30505051       0.00000000       0.00000000       0.25933903
2
Properties=species:S:1:pos:R:3:forces:R:3 energy=-1.2540601522356156 pbc="F F F"
F        0.00000000       0.00000000       0.00000000       0.00000000       0.00000000      -0.23857349
F        0.00000000       0.00000000       2.36464646       0.00000000       0.00000000       0.23857349
2
Properties=species:S:1:pos:R:3:forces:R:3 energy=-1.2674208594012464 pbc="F F F"
F        0.00000000       0.00000000       0.00000000       0.00000000       0.00000000      -0.20880076
F        0.00000000       0.00000000       2.42424242       0.00000000       0.00000000       0.20880076
2
Properties=species:S:1:pos:R:3:forces:R:3 energy=-1.278875172494849 pbc="F F F"
F        0.00000000       0.00000000       0.00000000       0.00000000       0.00000000      -0.17533703
F        0.00000000       0.00000000       2.48383838       0.00000000       0.00000000       0.17533703
2
Properties=species:S:1:pos:R:3:forces:R:3 energy=-1.2883227719595354 pbc="F F F"
F        0.00000000       0.00000000       0.00000000       0.00000000       0.00000000      -0.14199196
F        0.00000000       0.00000000       2.54343434       0.00000000       0.00000000       0.14199196
2
Properties=species:S:1:pos:R:3:forces:R:3 energy=-1.2958512294817894 pbc="F F F"
F        0.00000000       0.00000000       0.00000000       0.00000000       0.00000000      -0.11120683
F        0.00000000       0.00000000       2.60303030       0.00000000       0.00000000       0.11120683
2
Properties=species:S:1:pos:R:3:forces:R:3 energy=-1.301654137740057 pbc="F F F"
F        0.00000000       0.00000000       0.00000000       0.00000000       0.00000000      -0.08422532
F        0.00000000       0.00000000       2.66262626       0.00000000       0.00000000       0.08422532
2
Properties=species:S:1:pos:R:3:forces:R:3 energy=-1.3059725984424646 pbc="F F F"
F        0.00000000       0.00000000       0.00000000       0.00000000       0.00000000      -0.06137205
F        0.00000000       0.00000000       2.72222222       0.00000000       0.00000000       0.06137205
2
Properties=species:S:1:pos:R:3:forces:R:3 energy=-1.3090462403760807 pbc="F F F"
F        0.00000000       0.00000000       0.00000000       0.00000000       0.00000000      -0.04237663
F        0.00000000       0.00000000       2.78181818       0.00000000       0.00000000       0.04237663
2
Properties=species:S:1:pos:R:3:forces:R:3 energy=-1.3110885462518 pbc="F F F"
F        0.00000000       0.00000000       0.00000000       0.00000000       0.00000000      -0.02667022
F        0.00000000       0.00000000       2.84141414       0.00000000       0.00000000       0.02667022
2
Properties=species:S:1:pos:R:3:forces:R:3 energy=-1.3122769436821349 pbc="F F F"
F        0.00000000       0.00000000       0.00000000       0.00000000       0.00000000      -0.01360926
F        0.00000000       0.00000000       2.90101010       0.00000000       0.00000000       0.01360926
2
Properties=species:S:1:pos:R:3:forces:R:3 energy=-1.312751718834363 pbc="F F F"
F        0.00000000       0.00000000       0.00000000       0.00000000       0.00000000      -0.00260936
F        0.00000000       0.00000000       2.96060606       0.00000000       0.00000000       0.00260936
2
Properties=species:S:1:pos:R:3:forces:R:3 energy=-1.312619201819215 pbc="F F F"
F        0.00000000       0.00000000       0.00000000       0.00000000       0.00000000       0.00680662
F        0.00000000       0.00000000       3.02020202       0.00000000       0.00000000      -0.00680662
2
Properties=species:S:1:pos:R:3:forces:R:3 energy=-1.3119642432765435 pbc="F F F"
F        0.00000000       0.00000000       0.00000000       0.00000000       0.00000000       0.01502694
F        0.00000000       0.00000000       3.07979798       0.00000000       0.00000000      -0.01502694
2
Properties=species:S:1:pos:R:3:forces:R:3 energy=-1.3108456416567216 pbc="F F F"
F        0.00000000       0.00000000       0.00000000       0.00000000       0.00000000       0.02239217
F        0.00000000       0.00000000       3.13939394       0.00000000       0.00000000      -0.02239217
2
Properties=species:S:1:pos:R:3:forces:R:3 energy=-1.3093053952158287 pbc="F F F"
F        0.00000000       0.00000000       0.00000000       0.00000000       0.00000000       0.02924763
F        0.00000000       0.00000000       3.19898990       0.00000000       0.00000000      -0.02924763
2
Properties=species:S:1:pos:R:3:forces:R:3 energy=-1.3073620908597934 pbc="F F F"
F        0.00000000       0.00000000       0.00000000       0.00000000       0.00000000       0.03597244
F        0.00000000       0.00000000       3.25858586       0.00000000       0.00000000      -0.03597244
2
Properties=species:S:1:pos:R:3:forces:R:3 energy=-1.3050117031694102 pbc="F F F"
F        0.00000000       0.00000000       0.00000000       0.00000000       0.00000000       0.04298220
F        0.00000000       0.00000000       3.31818182       0.00000000       0.00000000      -0.04298220
2
Properties=species:S:1:pos:R:3:forces:R:3 energy=-1.3022250478436819 pbc="F F F"
F        0.00000000       0.00000000       0.00000000       0.00000000       0.00000000       0.05069458
F        0.00000000       0.00000000       3.37777778       0.00000000       0.00000000      -0.05069458
2
Properties=species:S:1:pos:R:3:forces:R:3 energy=-1.2989483551755345 pbc="F F F"
F        0.00000000       0.00000000       0.00000000       0.00000000       0.00000000       0.05946866
F        0.00000000       0.00000000       3.43737374       0.00000000       0.00000000      -0.05946866
2
Properties=species:S:1:pos:R:3:forces:R:3 energy=-1.2951108764796382 pbc="F F F"
F        0.00000000       0.00000000       0.00000000       0.00000000       0.00000000       0.06953410
F        0.00000000       0.00000000       3.49696970       0.00000000       0.00000000      -0.06953410
2
Properties=species:S:1:pos:R:3:forces:R:3 energy=-1.2906339424145017 pbc="F F F"
F        0.00000000       0.00000000       0.00000000       0.00000000       0.00000000       0.08092061
F        0.00000000       0.00000000       3.55656566       0.00000000       0.00000000      -0.08092061
2
Properties=species:S:1:pos:R:3:forces:R:3 energy=-1.2854437136247217 pbc="F F F"
F        0.00000000       0.00000000       0.00000000       0.00000000       0.00000000       0.09340966
F        0.00000000       0.00000000       3.61616162       0.00000000       0.00000000      -0.09340966
2
Properties=species:S:1:pos:R:3:forces:R:3 energy=-1.2794878819208517 pbc="F F F"
F        0.00000000       0.00000000       0.00000000       0.00000000       0.00000000       0.10652487
F        0.00000000       0.00000000       3.67575758       0.00000000       0.00000000      -0.10652487
2
Properties=species:S:1:pos:R:3:forces:R:3 energy=-1.272748196758273 pbc="F F F"
F        0.00000000       0.00000000       0.00000000       0.00000000       0.00000000       0.11957519
F        0.00000000       0.00000000       3.73535354       0.00000000       0.00000000      -0.11957519
2
Properties=species:S:1:pos:R:3:forces:R:3 energy=-1.2652526473534493 pbc="F F F"
F        0.00000000       0.00000000       0.00000000       0.00000000       0.00000000       0.13174812
F        0.00000000       0.00000000       3.79494949       0.00000000       0.00000000      -0.13174812
2
Properties=species:S:1:pos:R:3:forces:R:3 energy=-1.257078220633681 pbc="F F F"
F        0.00000000       0.00000000       0.00000000       0.00000000       0.00000000       0.14224122
F        0.00000000       0.00000000       3.85454545       0.00000000       0.00000000      -0.14224122
2
Properties=species:S:1:pos:R:3:forces:R:3 energy=-1.2483451985941172 pbc="F F F"
F        0.00000000       0.00000000       0.00000000       0.00000000       0.00000000       0.15040167
F        0.00000000       0.00000000       3.91414141       0.00000000       0.00000000      -0.15040167
2
Properties=species:S:1:pos:R:3:forces:R:3 energy=-1.2392058522241924 pbc="F F F"
F        0.00000000       0.00000000       0.00000000       0.00000000       0.00000000       0.15584297
F        0.00000000       0.00000000       3.97373737       0.00000000       0.00000000      -0.15584297
2
Properties=species:S:1:pos:R:3:forces:R:3 energy=-1.2298257446561 pbc="F F F"
F        0.00000000       0.00000000       0.00000000       0.00000000       0.00000000       0.15849701
F        0.00000000       0.00000000       4.03333333       0.00000000       0.00000000      -0.15849701
2
Properties=species:S:1:pos:R:3:forces:R:3 energy=-1.220365150750711 pbc="F F F"
F        0.00000000       0.00000000       0.00000000       0.00000000       0.00000000       0.15859051
F        0.00000000       0.00000000       4.09292929       0.00000000       0.00000000      -0.15859051
2
Properties=species:S:1:pos:R:3:forces:R:3 energy=-1.2109651211930454 pbc="F F F"
F        0.00000000       0.00000000       0.00000000       0.00000000       0.00000000       0.15656057
F        0.00000000       0.00000000       4.15252525       0.00000000       0.00000000      -0.15656057
2
Properties=species:S:1:pos:R:3:forces:R:3 energy=-1.2017365280079184 pbc="F F F"
F        0.00000000       0.00000000       0.00000000       0.00000000       0.00000000       0.15293527
F        0.00000000       0.00000000       4.21212121       0.00000000       0.00000000      -0.15293527
2
Properties=species:S:1:pos:R:3:forces:R:3 energy=-1.1927575705693299 pbc="F F F"
F        0.00000000       0.00000000       0.00000000       0.00000000       0.00000000       0.14824016
F        0.00000000       0.00000000       4.27171717       0.00000000       0.00000000      -0.14824016
2
Properties=species:S:1:pos:R:3:forces:R:3 energy=-1.1840793862576353 pbc="F F F"
F        0.00000000       0.00000000       0.00000000       0.00000000       0.00000000       0.14292666
F        0.00000000       0.00000000       4.33131313       0.00000000       0.00000000      -0.14292666
2
Properties=species:S:1:pos:R:3:forces:R:3 energy=-1.1757270104695066 pbc="F F F"
F        0.00000000       0.00000000       0.00000000       0.00000000       0.00000000       0.13735588
F        0.00000000       0.00000000       4.39090909       0.00000000       0.00000000      -0.13735588
2
Properties=species:S:1:pos:R:3:forces:R:3 energy=-1.1677073673031253 pbc="F F F"
F        0.00000000       0.00000000       0.00000000       0.00000000       0.00000000       0.13178617
F        0.00000000       0.00000000       4.45050505       0.00000000       0.00000000      -0.13178617
2
Properties=species:S:1:pos:R:3:forces:R:3 energy=-1.1600161889931804 pbc="F F F"
F        0.00000000       0.00000000       0.00000000       0.00000000       0.00000000       0.12636025
F        0.00000000       0.00000000       4.51010101       0.00000000       0.00000000      -0.12636025
2
Properties=species:S:1:pos:R:3:forces:R:3 energy=-1.1526433784974999 pbc="F F F"
F        0.00000000       0.00000000       0.00000000       0.00000000       0.00000000       0.12107226
F        0.00000000       0.00000000       4.56969697       0.00000000       0.00000000      -0.12107226
2
Properties=species:S:1:pos:R:3:forces:R:3 energy=-1.145585891227923 pbc="F F F"
F        0.00000000       0.00000000       0.00000000       0.00000000       0.00000000       0.11574344
F        0.00000000       0.00000000       4.62929293       0.00000000       0.00000000      -0.11574344
2
Properties=species:S:1:pos:R:3:forces:R:3 energy=-1.1388553607325396 pbc="F F F"
F        0.00000000       0.00000000       0.00000000       0.00000000       0.00000000       0.11003662
F        0.00000000       0.00000000       4.68888889       0.00000000       0.00000000      -0.11003662
2
Properties=species:S:1:pos:R:3:forces:R:3 energy=-1.1324863279479542 pbc="F F F"
F        0.00000000       0.00000000       0.00000000       0.00000000       0.00000000       0.10353869
F        0.00000000       0.00000000       4.74848485       0.00000000       0.00000000      -0.10353869
2
Properties=species:S:1:pos:R:3:forces:R:3 energy=-1.126536833038472 pbc="F F F"
F        0.00000000       0.00000000       0.00000000       0.00000000       0.00000000       0.09591903
F        0.00000000       0.00000000       4.80808081       0.00000000       0.00000000      -0.09591903
2
Properties=species:S:1:pos:R:3:forces:R:3 energy=-1.1210769757095524 pbc="F F F"
F        0.00000000       0.00000000       0.00000000       0.00000000       0.00000000       0.08712966
F        0.00000000       0.00000000       4.86767677       0.00000000       0.00000000      -0.08712966
2
Properties=species:S:1:pos:R:3:forces:R:3 energy=-1.1161667388646463 pbc="F F F"
F        0.00000000       0.00000000       0.00000000       0.00000000       0.00000000       0.07759900
F        0.00000000       0.00000000       4.92727273       0.00000000       0.00000000      -0.07759900
2
Properties=species:S:1:pos:R:3:forces:R:3 energy=-1.1118228481752133 pbc="F F F"
F        0.00000000       0.00000000       0.00000000       0.00000000       0.00000000       0.06833337
F        0.00000000       0.00000000       4.98686869       0.00000000       0.00000000      -0.06833337
2
Properties=species:S:1:pos:R:3:forces:R:3 energy=-1.1079865855230466 pbc="F F F"
F        0.00000000       0.00000000       0.00000000       0.00000000       0.00000000       0.06087368
F        0.00000000       0.00000000       5.04646465       0.00000000       0.00000000      -0.06087368
2
Properties=species:S:1:pos:R:3:forces:R:3 energy=-1.1044960109094384 pbc="F F F"
F        0.00000000       0.00000000       0.00000000       0.00000000       0.00000000       0.05701045
F        0.00000000       0.00000000       5.10606061       0.00000000       0.00000000      -0.05701045
2
Properties=species:S:1:pos:R:3:forces:R:3 energy=-1.1010895397238103 pbc="F F F"
F        0.00000000       0.00000000       0.00000000       0.00000000       0.00000000       0.05820258
F        0.00000000       0.00000000       5.16565657       0.00000000       0.00000000      -0.05820258
2
Properties=species:S:1:pos:R:3:forces:R:3 energy=-1.0974524324857438 pbc="F F F"
F        0.00000000       0.00000000       0.00000000       0.00000000       0.00000000       0.06464704
F        0.00000000       0.00000000       5.22525253       0.00000000       0.00000000      -0.06464704
2
Properties=species:S:1:pos:R:3:forces:R:3 energy=-1.0933195517429082 pbc="F F F"
F        0.00000000       0.00000000       0.00000000       0.00000000       0.00000000       0.07426726
F        0.00000000       0.00000000       5.28484848       0.00000000       0.00000000      -0.07426726
2
Properties=species:S:1:pos:R:3:forces:R:3 energy=-1.08862711618962 pbc="F F F"
F        0.00000000       0.00000000       0.00000000       0.00000000       0.00000000       0.08253383
F        0.00000000       0.00000000       5.34444444       0.00000000       0.00000000      -0.08253383
2
Properties=species:S:1:pos:R:3:forces:R:3 energy=-1.083591257584018 pbc="F F F"
F        0.00000000       0.00000000       0.00000000       0.00000000       0.00000000       0.08559564
F        0.00000000       0.00000000       5.40404040       0.00000000       0.00000000      -0.08559564
2
Properties=species:S:1:pos:R:3:forces:R:3 energy=-1.078450289991822 pbc="F F F"
F        0.00000000       0.00000000       0.00000000       0.00000000       0.00000000       0.08760818
F        0.00000000       0.00000000       5.46363636       0.00000000       0.00000000      -0.08760818
2
Properties=species:S:1:pos:R:3:forces:R:3 energy=-1.0729971700370144 pbc="F F F"
F        0.00000000       0.00000000       0.00000000       0.00000000       0.00000000       0.09652878
F        0.00000000       0.00000000       5.52323232       0.00000000       0.00000000      -0.09652878
2
Properties=species:S:1:pos:R:3:forces:R:3 energy=-1.066986477107009 pbc="F F F"
F        0.00000000       0.00000000       0.00000000       0.00000000       0.00000000       0.10351291
F        0.00000000       0.00000000       5.58282828       0.00000000       0.00000000      -0.10351291
2
Properties=species:S:1:pos:R:3:forces:R:3 energy=-1.0608868610023745 pbc="F F F"
F        0.00000000       0.00000000       0.00000000       0.00000000       0.00000000       0.09963887
F        0.00000000       0.00000000       5.64242424       0.00000000       0.00000000      -0.09963887
2
Properties=species:S:1:pos:R:3:forces:R:3 energy=-1.0551969000220902 pbc="F F F"
F        0.00000000       0.00000000       0.00000000       0.00000000       0.00000000       0.09155268
F        0.00000000       0.00000000       5.70202020       0.00000000       0.00000000      -0.09155268
2
Properties=species:S:1:pos:R:3:forces:R:3 energy=-1.049802681223582 pbc="F F F"
F        0.00000000       0.00000000       0.00000000       0.00000000       0.00000000       0.09124958
F        0.00000000       0.00000000       5.76161616       0.00000000       0.00000000      -0.09124958
2
Properties=species:S:1:pos:R:3:forces:R:3 energy=-1.044409456492978 pbc="F F F"
F        0.00000000       0.00000000       0.00000000       0.00000000       0.00000000       0.08591970
F        0.00000000       0.00000000       5.82121212       0.00000000       0.00000000      -0.08591970
2
Properties=species:S:1:pos:R:3:forces:R:3 energy=-1.0401445307266552 pbc="F F F"
F        0.00000000       0.00000000       0.00000000       0.00000000       0.00000000       0.05391076
F        0.00000000       0.00000000       5.88080808       0.00000000       0.00000000      -0.05391076
2
Properties=species:S:1:pos:R:3:forces:R:3 energy=-1.0380931324336522 pbc="F F F"
F        0.00000000       0.00000000       0.00000000       0.00000000       0.00000000       0.01593648
F        0.00000000       0.00000000       5.94040404       0.00000000       0.00000000      -0.01593648
2
Properties=species:S:1:pos:R:3:forces:R:3 energy=-1.0377739652418982 pbc="F F F"
F        0.00000000       0.00000000       0.00000000       0.00000000       0.00000000       0.00013400
F        0.00000000       0.00000000       6.00000000       0.00000000       0.00000000      -0.00013400
