2
Properties=species:S:1:pos:R:3:forces:R:3 energy=15016.502957098088 pbc="F F F"
Fe       0.00000000       0.00000000       0.00000000       0.00000000       0.00000000 -331576.40625000
Fe       0.00000000       0.00000000       0.10000000       0.00000000       0.00000000  331576.40625000
2
Properties=species:S:1:pos:R:3:forces:R:3 energy=4923.285183660589 pbc="F F F"
Fe       0.00000000       0.00000000       0.00000000       0.00000000       0.00000000  -78712.81250000
Fe       0.00000000       0.00000000       0.15959596       0.00000000       0.00000000   78712.81250000
2
Properties=species:S:1:pos:R:3:forces:R:3 energy=2142.9385039730882 pbc="F F F"
Fe       0.00000000       0.00000000       0.00000000       0.00000000       0.00000000  -25904.15234375
Fe       0.00000000       0.00000000       0.21919192       0.00000000       0.00000000   25904.15234375
2
Properties=species:S:1:pos:R:3:forces:R:3 energy=1160.5371367887562 pbc="F F F"
Fe       0.00000000       0.00000000       0.00000000       0.00000000       0.00000000   -9779.95117188
Fe       0.00000000       0.00000000       0.27878788       0.00000000       0.00000000    9779.95117188
2
Properties=species:S:1:pos:R:3:forces:R:3 energy=794.7684600309436 pbc="F F F"
Fe       0.00000000       0.00000000       0.00000000       0.00000000       0.00000000   -3341.58740234
Fe       0.00000000       0.00000000       0.33838384       0.00000000       0.00000000    3341.58740234
2
Properties=species:S:1:pos:R:3:forces:R:3 energy=695.733242752123 pbc="F F F"
Fe       0.00000000       0.00000000       0.00000000       0.00000000       0.00000000    -376.64657593
Fe       0.00000000       0.00000000       0.39797980       0.00000000       0.00000000     376.64657593
2
Properties=species:S:1:pos:R:3:forces:R:3 energy=716.7342803561149 pbc="F F F"
Fe       0.00000000       0.00000000       0.00000000       0.00000000       0.00000000     817.97564697
Fe       0.00000000       0.00000000       0.45757576       0.00000000       0.00000000    -817.97564697
2
Properties=species:S:1:pos:R:3:forces:R:3 energy=764.2997100626219 pbc="F F F"
Fe       0.00000000       0.00000000       0.00000000       0.00000000       0.00000000     562.72222900
Fe       0.00000000       0.00000000       0.51717172       0.00000000       0.00000000    -562.72222900
2
Properties=species:S:1:pos:R:3:forces:R:3 energy=752.0495880239876 pbc="F F F"
Fe       0.00000000       0.00000000       0.00000000       0.00000000       0.00000000   -1463.13610840
Fe       0.00000000       0.00000000       0.57676768       0.00000000       0.00000000    1463.13610840
2
Properties=species:S:1:pos:R:3:forces:R:3 energy=604.1593903207665 pbc="F F F"
Fe       0.00000000       0.00000000       0.00000000       0.00000000       0.00000000   -2065.34936523
Fe       0.00000000       0.00000000       0.63636364       0.00000000       0.00000000    2065.34936523
2
Properties=species:S:1:pos:R:3:forces:R:3 energy=461.40133376250486 pbc="F F F"
Fe       0.00000000       0.00000000       0.00000000       0.00000000       0.00000000   -2607.03344727
Fe       0.00000000       0.00000000       0.69595960       0.00000000       0.00000000    2607.03344727
2
Properties=species:S:1:pos:R:3:forces:R:3 energy=305.7361727595731 pbc="F F F"
Fe       0.00000000       0.00000000       0.00000000       0.00000000       0.00000000   -2509.56225586
Fe       0.00000000       0.00000000       0.75555556       0.00000000       0.00000000    2509.56225586
2
Properties=species:S:1:pos:R:3:forces:R:3 energy=181.81130723015397 pbc="F F F"
Fe       0.00000000       0.00000000       0.00000000       0.00000000       0.00000000   -1644.19458008
Fe       0.00000000       0.00000000       0.81515152       0.00000000       0.00000000    1644.19458008
2
Properties=species:S:1:pos:R:3:forces:R:3 energy=111.04621656337169 pbc="F F F"
Fe       0.00000000       0.00000000       0.00000000       0.00000000       0.00000000    -838.04052734
Fe       0.00000000       0.00000000       0.87474747       0.00000000       0.00000000     838.04052734
2
Properties=species:S:1:pos:R:3:forces:R:3 energy=70.37786673328725 pbc="F F F"
Fe       0.00000000       0.00000000       0.00000000       0.00000000       0.00000000    -552.80645752
Fe       0.00000000       0.00000000       0.93434343       0.00000000       0.00000000     552.80645752
2
Properties=species:S:1:pos:R:3:forces:R:3 energy=43.91325622468587 pbc="F F F"
Fe       0.00000000       0.00000000       0.00000000       0.00000000       0.00000000    -345.49499512
Fe       0.00000000       0.00000000       0.99393939       0.00000000       0.00000000     345.49499512
2
Properties=species:S:1:pos:R:3:forces:R:3 energy=27.630372368177927 pbc="F F F"
Fe       0.00000000       0.00000000       0.00000000       0.00000000       0.00000000    -212.94506836
Fe       0.00000000       0.00000000       1.05353535       0.00000000       0.00000000     212.94506836
2
Properties=species:S:1:pos:R:3:forces:R:3 energy=17.44258534372706 pbc="F F F"
Fe       0.00000000       0.00000000       0.00000000       0.00000000       0.00000000    -135.90287781
Fe       0.00000000       0.00000000       1.11313131       0.00000000       0.00000000     135.90287781
2
Properties=species:S:1:pos:R:3:forces:R:3 energy=10.771833166698055 pbc="F F F"
Fe       0.00000000       0.00000000       0.00000000       0.00000000       0.00000000     -92.27845001
Fe       0.00000000       0.00000000       1.17272727       0.00000000       0.00000000      92.27845001
2
Properties=species:S:1:pos:R:3:forces:R:3 energy=6.06096173133144 pbc="F F F"
Fe       0.00000000       0.00000000       0.00000000       0.00000000       0.00000000     -68.03931427
Fe       0.00000000       0.00000000       1.23232323       0.00000000       0.00000000      68.03931427
2
Properties=species:S:1:pos:R:3:forces:R:3 energy=2.476145058094934 pbc="F F F"
Fe       0.00000000       0.00000000       0.00000000       0.00000000       0.00000000     -53.36014938
Fe       0.00000000       0.00000000       1.29191919       0.00000000       0.00000000      53.36014938
2
Properties=species:S:1:pos:R:3:forces:R:3 energy=-0.39166863094364524 pbc="F F F"
Fe       0.00000000       0.00000000       0.00000000       0.00000000       0.00000000     -43.38066864
Fe       0.00000000       0.00000000       1.35151515       0.00000000       0.00000000      43.38066864
2
Properties=species:S:1:pos:R:3:forces:R:3 energy=-2.7283508323509027 pbc="F F F"
Fe       0.00000000       0.00000000       0.00000000       0.00000000       0.00000000     -35.15326691
Fe       0.00000000       0.00000000       1.41111111       0.00000000       0.00000000      35.15326691
2
Properties=species:S:1:pos:R:3:forces:R:3 energy=-4.586264786594471 pbc="F F F"
Fe       0.00000000       0.00000000       0.00000000       0.00000000       0.00000000     -27.22876549
Fe       0.00000000       0.00000000       1.47070707       0.00000000       0.00000000      27.22876549
2
Properties=species:S:1:pos:R:3:forces:R:3 energy=-5.98627055261791 pbc="F F F"
Fe       0.00000000       0.00000000       0.00000000       0.00000000       0.00000000     -19.94723511
Fe       0.00000000       0.00000000       1.53030303       0.00000000       0.00000000      19.94723511
2
Properties=species:S:1:pos:R:3:forces:R:3 energy=-6.993989379745931 pbc="F F F"
Fe       0.00000000       0.00000000       0.00000000       0.00000000       0.00000000     -14.15358925
Fe       0.00000000       0.00000000       1.58989899       0.00000000       0.00000000      14.15358925
2
Properties=species:S:1:pos:R:3:forces:R:3 energy=-7.705925387537474 pbc="F F F"
Fe       0.00000000       0.00000000       0.00000000       0.00000000       0.00000000      -9.98841286
Fe       0.00000000       0.00000000       1.64949495       0.00000000       0.00000000       9.98841286
2
Properties=species:S:1:pos:R:3:forces:R:3 energy=-8.21013614151524 pbc="F F F"
Fe       0.00000000       0.00000000       0.00000000       0.00000000       0.00000000      -7.11167860
Fe       0.00000000       0.00000000       1.70909091       0.00000000       0.00000000       7.11167860
2
Properties=species:S:1:pos:R:3:forces:R:3 energy=-8.571177170962814 pbc="F F F"
Fe       0.00000000       0.00000000       0.00000000       0.00000000       0.00000000      -5.12451744
Fe       0.00000000       0.00000000       1.76868687       0.00000000       0.00000000       5.12451744
2
Properties=species:S:1:pos:R:3:forces:R:3 energy=-8.832463027281573 pbc="F F F"
Fe       0.00000000       0.00000000       0.00000000       0.00000000       0.00000000      -3.72013640
Fe       0.00000000       0.00000000       1.82828283       0.00000000       0.00000000       3.72013640
2
Properties=species:S:1:pos:R:3:forces:R:3 energy=-9.021627434164806 pbc="F F F"
Fe       0.00000000       0.00000000       0.00000000       0.00000000       0.00000000      -2.67244339
Fe       0.00000000       0.00000000       1.88787879       0.00000000       0.00000000       2.67244339
2
Properties=species:S:1:pos:R:3:forces:R:3 energy=-9.154915247600556 pbc="F F F"
Fe       0.00000000       0.00000000       0.00000000       0.00000000       0.00000000      -1.82406247
Fe       0.00000000       0.00000000       1.94747475       0.00000000       0.00000000       1.82406247
2
Properties=species:S:1:pos:R:3:forces:R:3 energy=-9.24107279735932 pbc="F F F"
Fe       0.00000000       0.00000000       0.00000000       0.00000000       0.00000000      -1.07984424
Fe       0.00000000       0.00000000       2.00707071       0.00000000       0.00000000       1.07984424
2
Properties=species:S:1:pos:R:3:forces:R:3 energy=-9.284861409757497 pbc="F F F"
Fe       0.00000000       0.00000000       0.00000000       0.00000000       0.00000000      -0.39935261
Fe       0.00000000       0.00000000       2.06666667       0.00000000       0.00000000       0.39935261
2
Properties=species:S:1:pos:R:3:forces:R:3 energy=-9.289920049044024 pbc="F F F"
Fe       0.00000000       0.00000000       0.00000000       0.00000000       0.00000000       0.21771400
Fe       0.00000000       0.00000000       2.12626263       0.00000000       0.00000000      -0.21771400
2
Properties=species:S:1:pos:R:3:forces:R:3 energy=-9.260553553827176 pbc="F F F"
Fe       0.00000000       0.00000000       0.00000000       0.00000000       0.00000000       0.75222057
Fe       0.00000000       0.00000000       2.18585859       0.00000000       0.00000000      -0.75222057
2
Properties=species:S:1:pos:R:3:forces:R:3 energy=-9.20230964897978 pbc="F F F"
Fe       0.00000000       0.00000000       0.00000000       0.00000000       0.00000000       1.18396413
Fe       0.00000000       0.00000000       2.24545455       0.00000000       0.00000000      -1.18396413
2
Properties=species:S:1:pos:R:3:forces:R:3 energy=-9.12171100271032 pbc="F F F"
Fe       0.00000000       0.00000000       0.00000000       0.00000000       0.00000000       1.50141227
Fe       0.00000000       0.00000000       2.30505051       0.00000000       0.00000000      -1.50141227
2
Properties=species:S:1:pos:R:3:forces:R:3 energy=-9.025658041820408 pbc="F F F"
Fe       0.00000000       0.00000000       0.00000000       0.00000000       0.00000000       1.70310521
Fe       0.00000000       0.00000000       2.36464646       0.00000000       0.00000000      -1.70310521
2
Properties=species:S:1:pos:R:3:forces:R:3 energy=-8.920901726904916 pbc="F F F"
Fe       0.00000000       0.00000000       0.00000000       0.00000000       0.00000000       1.79482353
Fe       0.00000000       0.00000000       2.42424242       0.00000000       0.00000000      -1.79482353
2
Properties=species:S:1:pos:R:3:forces:R:3 energy=-8.813684517126664 pbc="F F F"
Fe       0.00000000       0.00000000       0.00000000       0.00000000       0.00000000       1.78872120
Fe       0.00000000       0.00000000       2.48383838       0.00000000       0.00000000      -1.78872120
2
Properties=species:S:1:pos:R:3:forces:R:3 energy=-8.709013587968045 pbc="F F F"
Fe       0.00000000       0.00000000       0.00000000       0.00000000       0.00000000       1.71851480
Fe       0.00000000       0.00000000       2.54343434       0.00000000       0.00000000      -1.71851480
2
Properties=species:S:1:pos:R:3:forces:R:3 energy=-8.60863802711665 pbc="F F F"
Fe       0.00000000       0.00000000       0.00000000       0.00000000       0.00000000       1.65748286
Fe       0.00000000       0.00000000       2.60303030       0.00000000       0.00000000      -1.65748286
2
Properties=species:S:1:pos:R:3:forces:R:3 energy=-8.510639292766102 pbc="F F F"
Fe       0.00000000       0.00000000       0.00000000       0.00000000       0.00000000       1.63351965
Fe       0.00000000       0.00000000       2.66262626       0.00000000       0.00000000      -1.63351965
2
Properties=species:S:1:pos:R:3:forces:R:3 energy=-8.414262973976028 pbc="F F F"
Fe       0.00000000       0.00000000       0.00000000       0.00000000       0.00000000       1.59540224
Fe       0.00000000       0.00000000       2.72222222       0.00000000       0.00000000      -1.59540224
2
Properties=species:S:1:pos:R:3:forces:R:3 energy=-8.321086005275012 pbc="F F F"
Fe       0.00000000       0.00000000       0.00000000       0.00000000       0.00000000       1.52772534
Fe       0.00000000       0.00000000       2.78181818       0.00000000       0.00000000      -1.52772534
2
Properties=species:S:1:pos:R:3:forces:R:3 energy=-8.232472651238034 pbc="F F F"
Fe       0.00000000       0.00000000       0.00000000       0.00000000       0.00000000       1.44456100
Fe       0.00000000       0.00000000       2.84141414       0.00000000       0.00000000      -1.44456100
2
Properties=species:S:1:pos:R:3:forces:R:3 energy=-8.149004917199456 pbc="F F F"
Fe       0.00000000       0.00000000       0.00000000       0.00000000       0.00000000       1.35621822
Fe       0.00000000       0.00000000       2.90101010       0.00000000       0.00000000      -1.35621822
2
Properties=species:S:1:pos:R:3:forces:R:3 energy=-8.070818189164186 pbc="F F F"
Fe       0.00000000       0.00000000       0.00000000       0.00000000       0.00000000       1.26804090
Fe       0.00000000       0.00000000       2.96060606       0.00000000       0.00000000      -1.26804090
2
Properties=species:S:1:pos:R:3:forces:R:3 energy=-7.997788685243652 pbc="F F F"
Fe       0.00000000       0.00000000       0.00000000       0.00000000       0.00000000       1.18367529
Fe       0.00000000       0.00000000       3.02020202       0.00000000       0.00000000      -1.18367529
2
Properties=species:S:1:pos:R:3:forces:R:3 energy=-7.929606457383287 pbc="F F F"
Fe       0.00000000       0.00000000       0.00000000       0.00000000       0.00000000       1.10566199
Fe       0.00000000       0.00000000       3.07979798       0.00000000       0.00000000      -1.10566199
2
Properties=species:S:1:pos:R:3:forces:R:3 energy=-7.865854085688608 pbc="F F F"
Fe       0.00000000       0.00000000       0.00000000       0.00000000       0.00000000       1.03506947
Fe       0.00000000       0.00000000       3.13939394       0.00000000       0.00000000      -1.03506947
2
Properties=species:S:1:pos:R:3:forces:R:3 energy=-7.806094885685036 pbc="F F F"
Fe       0.00000000       0.00000000       0.00000000       0.00000000       0.00000000       0.97147584
Fe       0.00000000       0.00000000       3.19898990       0.00000000       0.00000000      -0.97147584
2
Properties=species:S:1:pos:R:3:forces:R:3 energy=-7.749949816501011 pbc="F F F"
Fe       0.00000000       0.00000000       0.00000000       0.00000000       0.00000000       0.91352206
Fe       0.00000000       0.00000000       3.25858586       0.00000000       0.00000000      -0.91352206
2
Properties=species:S:1:pos:R:3:forces:R:3 energy=-7.697129668048232 pbc="F F F"
Fe       0.00000000       0.00000000       0.00000000       0.00000000       0.00000000       0.85967720
Fe       0.00000000       0.00000000       3.31818182       0.00000000       0.00000000      -0.85967720
2
Properties=species:S:1:pos:R:3:forces:R:3 energy=-7.647425478265155 pbc="F F F"
Fe       0.00000000       0.00000000       0.00000000       0.00000000       0.00000000       0.80877876
Fe       0.00000000       0.00000000       3.37777778       0.00000000       0.00000000      -0.80877876
2
Properties=species:S:1:pos:R:3:forces:R:3 energy=-7.600684334799158 pbc="F F F"
Fe       0.00000000       0.00000000       0.00000000       0.00000000       0.00000000       0.76018792
Fe       0.00000000       0.00000000       3.43737374       0.00000000       0.00000000      -0.76018792
2
Properties=species:S:1:pos:R:3:forces:R:3 energy=-7.5567765872842285 pbc="F F F"
Fe       0.00000000       0.00000000       0.00000000       0.00000000       0.00000000       0.71364141
Fe       0.00000000       0.00000000       3.49696970       0.00000000       0.00000000      -0.71364141
2
Properties=species:S:1:pos:R:3:forces:R:3 energy=-7.515585502643299 pbc="F F F"
Fe       0.00000000       0.00000000       0.00000000       0.00000000       0.00000000       0.66900587
Fe       0.00000000       0.00000000       3.55656566       0.00000000       0.00000000      -0.66900587
2
Properties=species:S:1:pos:R:3:forces:R:3 energy=-7.477002070564661 pbc="F F F"
Fe       0.00000000       0.00000000       0.00000000       0.00000000       0.00000000       0.62611121
Fe       0.00000000       0.00000000       3.61616162       0.00000000       0.00000000      -0.62611121
2
Properties=species:S:1:pos:R:3:forces:R:3 energy=-7.440928887891321 pbc="F F F"
Fe       0.00000000       0.00000000       0.00000000       0.00000000       0.00000000       0.58469993
Fe       0.00000000       0.00000000       3.67575758       0.00000000       0.00000000      -0.58469993
2
Properties=species:S:1:pos:R:3:forces:R:3 energy=-7.407286439867426 pbc="F F F"
Fe       0.00000000       0.00000000       0.00000000       0.00000000       0.00000000       0.54448736
Fe       0.00000000       0.00000000       3.73535354       0.00000000       0.00000000      -0.54448736
2
Properties=species:S:1:pos:R:3:forces:R:3 energy=-7.376010741295058 pbc="F F F"
Fe       0.00000000       0.00000000       0.00000000       0.00000000       0.00000000       0.50525641
Fe       0.00000000       0.00000000       3.79494949       0.00000000       0.00000000      -0.50525641
2
Properties=species:S:1:pos:R:3:forces:R:3 energy=-7.347046228326367 pbc="F F F"
Fe       0.00000000       0.00000000       0.00000000       0.00000000       0.00000000       0.46692815
Fe       0.00000000       0.00000000       3.85454545       0.00000000       0.00000000      -0.46692815
2
Properties=species:S:1:pos:R:3:forces:R:3 energy=-7.320337207072943 pbc="F F F"
Fe       0.00000000       0.00000000       0.00000000       0.00000000       0.00000000       0.42959797
Fe       0.00000000       0.00000000       3.91414141       0.00000000       0.00000000      -0.42959797
2
Properties=species:S:1:pos:R:3:forces:R:3 energy=-7.295816842001671 pbc="F F F"
Fe       0.00000000       0.00000000       0.00000000       0.00000000       0.00000000       0.39351985
Fe       0.00000000       0.00000000       3.97373737       0.00000000       0.00000000      -0.39351985
2
Properties=species:S:1:pos:R:3:forces:R:3 energy=-7.273400442200648 pbc="F F F"
Fe       0.00000000       0.00000000       0.00000000       0.00000000       0.00000000       0.35906735
Fe       0.00000000       0.00000000       4.03333333       0.00000000       0.00000000      -0.35906735
2
Properties=species:S:1:pos:R:3:forces:R:3 energy=-7.2529782708079455 pbc="F F F"
Fe       0.00000000       0.00000000       0.00000000       0.00000000       0.00000000       0.32666227
Fe       0.00000000       0.00000000       4.09292929       0.00000000       0.00000000      -0.32666227
2
Properties=species:S:1:pos:R:3:forces:R:3 energy=-7.234415933149746 pbc="F F F"
Fe       0.00000000       0.00000000       0.00000000       0.00000000       0.00000000       0.29671118
Fe       0.00000000       0.00000000       4.15252525       0.00000000       0.00000000      -0.29671118
2
Properties=species:S:1:pos:R:3:forces:R:3 energy=-7.2175575625449895 pbc="F F F"
Fe       0.00000000       0.00000000       0.00000000       0.00000000       0.00000000       0.26953414
Fe       0.00000000       0.00000000       4.21212121       0.00000000       0.00000000      -0.26953414
2
Properties=species:S:1:pos:R:3:forces:R:3 energy=-7.202230995822024 pbc="F F F"
Fe       0.00000000       0.00000000       0.00000000       0.00000000       0.00000000       0.24530961
Fe       0.00000000       0.00000000       4.27171717       0.00000000       0.00000000      -0.24530961
2
Properties=species:S:1:pos:R:3:forces:R:3 energy=-7.188259987351036 pbc="F F F"
Fe       0.00000000       0.00000000       0.00000000       0.00000000       0.00000000       0.22404526
Fe       0.00000000       0.00000000       4.33131313       0.00000000       0.00000000      -0.22404526
2
Properties=species:S:1:pos:R:3:forces:R:3 energy=-7.175471222217248 pbc="F F F"
Fe       0.00000000       0.00000000       0.00000000       0.00000000       0.00000000       0.20556989
Fe       0.00000000       0.00000000       4.39090909       0.00000000       0.00000000      -0.20556989
2
Properties=species:S:1:pos:R:3:forces:R:3 energy=-7.163708030456911 pbc="F F F"
Fe       0.00000000       0.00000000       0.00000000       0.00000000       0.00000000       0.18956237
Fe       0.00000000       0.00000000       4.45050505       0.00000000       0.00000000      -0.18956237
2
Properties=species:S:1:pos:R:3:forces:R:3 energy=-7.152836414877962 pbc="F F F"
Fe       0.00000000       0.00000000       0.00000000       0.00000000       0.00000000       0.17558850
Fe       0.00000000       0.00000000       4.51010101       0.00000000       0.00000000      -0.17558850
2
Properties=species:S:1:pos:R:3:forces:R:3 energy=-7.1427486756879635 pbc="F F F"
Fe       0.00000000       0.00000000       0.00000000       0.00000000       0.00000000       0.16315719
Fe       0.00000000       0.00000000       4.56969697       0.00000000       0.00000000      -0.16315719
2
Properties=species:S:1:pos:R:3:forces:R:3 energy=-7.133368687381063 pbc="F F F"
Fe       0.00000000       0.00000000       0.00000000       0.00000000       0.00000000       0.15176603
Fe       0.00000000       0.00000000       4.62929293       0.00000000       0.00000000      -0.15176603
2
Properties=species:S:1:pos:R:3:forces:R:3 energy=-7.124648345465982 pbc="F F F"
Fe       0.00000000       0.00000000       0.00000000       0.00000000       0.00000000       0.14095062
Fe       0.00000000       0.00000000       4.68888889       0.00000000       0.00000000      -0.14095062
2
Properties=species:S:1:pos:R:3:forces:R:3 energy=-7.116564711778708 pbc="F F F"
Fe       0.00000000       0.00000000       0.00000000       0.00000000       0.00000000       0.13032624
Fe       0.00000000       0.00000000       4.74848485       0.00000000       0.00000000      -0.13032624
2
Properties=species:S:1:pos:R:3:forces:R:3 energy=-7.10911555188568 pbc="F F F"
Fe       0.00000000       0.00000000       0.00000000       0.00000000       0.00000000       0.11964084
Fe       0.00000000       0.00000000       4.80808081       0.00000000       0.00000000      -0.11964084
2
Properties=species:S:1:pos:R:3:forces:R:3 energy=-7.102307111547885 pbc="F F F"
Fe       0.00000000       0.00000000       0.00000000       0.00000000       0.00000000       0.10882641
Fe       0.00000000       0.00000000       4.86767677       0.00000000       0.00000000      -0.10882641
2
Properties=species:S:1:pos:R:3:forces:R:3 energy=-7.0961439384137925 pbc="F F F"
Fe       0.00000000       0.00000000       0.00000000       0.00000000       0.00000000       0.09804843
Fe       0.00000000       0.00000000       4.92727273       0.00000000       0.00000000      -0.09804843
2
Properties=species:S:1:pos:R:3:forces:R:3 energy=-7.090612265578722 pbc="F F F"
Fe       0.00000000       0.00000000       0.00000000       0.00000000       0.00000000       0.08770379
Fe       0.00000000       0.00000000       4.98686869       0.00000000       0.00000000      -0.08770379
2
Properties=species:S:1:pos:R:3:forces:R:3 energy=-7.085671005531814 pbc="F F F"
Fe       0.00000000       0.00000000       0.00000000       0.00000000       0.00000000       0.07835633
Fe       0.00000000       0.00000000       5.04646465       0.00000000       0.00000000      -0.07835633
2
Properties=species:S:1:pos:R:3:forces:R:3 energy=-7.081242186486378 pbc="F F F"
Fe       0.00000000       0.00000000       0.00000000       0.00000000       0.00000000       0.07056167
Fe       0.00000000       0.00000000       5.10606061       0.00000000       0.00000000      -0.07056167
2
Properties=species:S:1:pos:R:3:forces:R:3 energy=-7.077222529520223 pbc="F F F"
Fe       0.00000000       0.00000000       0.00000000       0.00000000       0.00000000       0.06461851
Fe       0.00000000       0.00000000       5.16565657       0.00000000       0.00000000      -0.06461851
2
Properties=species:S:1:pos:R:3:forces:R:3 energy=-7.073507299937028 pbc="F F F"
Fe       0.00000000       0.00000000       0.00000000       0.00000000       0.00000000       0.06028666
Fe       0.00000000       0.00000000       5.22525253       0.00000000       0.00000000      -0.06028666
2
Properties=species:S:1:pos:R:3:forces:R:3 energy=-7.070022781294348 pbc="F F F"
Fe       0.00000000       0.00000000       0.00000000       0.00000000       0.00000000       0.05667951
Fe       0.00000000       0.00000000       5.28484848       0.00000000       0.00000000      -0.05667951
2
Properties=species:S:1:pos:R:3:forces:R:3 energy=-7.066761192222113 pbc="F F F"
Fe       0.00000000       0.00000000       0.00000000       0.00000000       0.00000000       0.05260051
Fe       0.00000000       0.00000000       5.34444444       0.00000000       0.00000000      -0.05260051
2
Properties=species:S:1:pos:R:3:forces:R:3 energy=-7.063773546536547 pbc="F F F"
Fe       0.00000000       0.00000000       0.00000000       0.00000000       0.00000000       0.04755354
Fe       0.00000000       0.00000000       5.40404040       0.00000000       0.00000000      -0.04755354
2
Properties=species:S:1:pos:R:3:forces:R:3 energy=-7.061091059056345 pbc="F F F"
Fe       0.00000000       0.00000000       0.00000000       0.00000000       0.00000000       0.04259013
Fe       0.00000000       0.00000000       5.46363636       0.00000000       0.00000000      -0.04259013
2
Properties=species:S:1:pos:R:3:forces:R:3 energy=-7.058681301926703 pbc="F F F"
Fe       0.00000000       0.00000000       0.00000000       0.00000000       0.00000000       0.03831036
Fe       0.00000000       0.00000000       5.52323232       0.00000000       0.00000000      -0.03831036
2
Properties=species:S:1:pos:R:3:forces:R:3 energy=-7.056542704699791 pbc="F F F"
Fe       0.00000000       0.00000000       0.00000000       0.00000000       0.00000000       0.03324936
Fe       0.00000000       0.00000000       5.58282828       0.00000000       0.00000000      -0.03324936
2
Properties=species:S:1:pos:R:3:forces:R:3 energy=-7.05473124375237 pbc="F F F"
Fe       0.00000000       0.00000000       0.00000000       0.00000000       0.00000000       0.02759261
Fe       0.00000000       0.00000000       5.64242424       0.00000000       0.00000000      -0.02759261
2
Properties=species:S:1:pos:R:3:forces:R:3 energy=-7.053233695468551 pbc="F F F"
Fe       0.00000000       0.00000000       0.00000000       0.00000000       0.00000000       0.02292863
Fe       0.00000000       0.00000000       5.70202020       0.00000000       0.00000000      -0.02292863
2
Properties=species:S:1:pos:R:3:forces:R:3 energy=-7.051956672944935 pbc="F F F"
Fe       0.00000000       0.00000000       0.00000000       0.00000000       0.00000000       0.02023269
Fe       0.00000000       0.00000000       5.76161616       0.00000000       0.00000000      -0.02023269
2
Properties=species:S:1:pos:R:3:forces:R:3 energy=-7.050821056379005 pbc="F F F"
Fe       0.00000000       0.00000000       0.00000000       0.00000000       0.00000000       0.01764101
Fe       0.00000000       0.00000000       5.82121212       0.00000000       0.00000000      -0.01764101
2
Properties=species:S:1:pos:R:3:forces:R:3 energy=-7.049885070116959 pbc="F F F"
Fe       0.00000000       0.00000000       0.00000000       0.00000000       0.00000000       0.01368386
Fe       0.00000000       0.00000000       5.88080808       0.00000000       0.00000000      -0.01368386
2
Properties=species:S:1:pos:R:3:forces:R:3 energy=-7.049181672471256 pbc="F F F"
Fe       0.00000000       0.00000000       0.00000000       0.00000000       0.00000000       0.01007691
Fe       0.00000000       0.00000000       5.94040404       0.00000000       0.00000000      -0.01007691
2
Properties=species:S:1:pos:R:3:forces:R:3 energy=-7.048644203178025 pbc="F F F"
Fe       0.00000000       0.00000000       0.00000000       0.00000000       0.00000000       0.00836448
Fe       0.00000000       0.00000000       6.00000000       0.00000000       0.00000000      -0.00836448
