2
Properties=species:S:1:pos:R:3:forces:R:3 energy=45807.16913564555 pbc="F F F"
I        0.00000000       0.00000000       0.00000000       0.00000000       0.00000000 -1124152.12500000
I        0.00000000       0.00000000       0.10000000       0.00000000       0.00000000 1124152.12500000
2
Properties=species:S:1:pos:R:3:forces:R:3 energy=12910.610541895547 pbc="F F F"
I        0.00000000       0.00000000       0.00000000       0.00000000       0.00000000 -242419.85937500
I        0.00000000       0.00000000       0.15959596       0.00000000       0.00000000  242419.85937500
2
Properties=species:S:1:pos:R:3:forces:R:3 energy=4580.477241114297 pbc="F F F"
I        0.00000000       0.00000000       0.00000000       0.00000000       0.00000000  -75018.10937500
I        0.00000000       0.00000000       0.21919192       0.00000000       0.00000000   75018.10937500
2
Properties=species:S:1:pos:R:3:forces:R:3 energy=1771.942206934609 pbc="F F F"
I        0.00000000       0.00000000       0.00000000       0.00000000       0.00000000  -27807.82421875
I        0.00000000       0.00000000       0.27878788       0.00000000       0.00000000   27807.82421875
2
Properties=species:S:1:pos:R:3:forces:R:3 energy=700.1334300854759 pbc="F F F"
I        0.00000000       0.00000000       0.00000000       0.00000000       0.00000000  -10711.28417969
I        0.00000000       0.00000000       0.33838384       0.00000000       0.00000000   10711.28417969
2
Properties=species:S:1:pos:R:3:forces:R:3 energy=310.95423087306153 pbc="F F F"
I        0.00000000       0.00000000       0.00000000       0.00000000       0.00000000   -3274.47558594
I        0.00000000       0.00000000       0.39797980       0.00000000       0.00000000    3274.47558594
2
Properties=species:S:1:pos:R:3:forces:R:3 energy=228.47391472362347 pbc="F F F"
I        0.00000000       0.00000000       0.00000000       0.00000000       0.00000000      73.51941681
I        0.00000000       0.00000000       0.45757576       0.00000000       0.00000000     -73.51941681
2
Properties=species:S:1:pos:R:3:forces:R:3 energy=320.0373913178017 pbc="F F F"
I        0.00000000       0.00000000       0.00000000       0.00000000       0.00000000    1653.07238770
I        0.00000000       0.00000000       0.51717172       0.00000000       0.00000000   -1653.07238770
2
Properties=species:S:1:pos:R:3:forces:R:3 energy=398.8024670584162 pbc="F F F"
I        0.00000000       0.00000000       0.00000000       0.00000000       0.00000000    1543.98852539
I        0.00000000       0.00000000       0.57676768       0.00000000       0.00000000   -1543.98852539
2
Properties=species:S:1:pos:R:3:forces:R:3 energy=482.96588877163896 pbc="F F F"
I        0.00000000       0.00000000       0.00000000       0.00000000       0.00000000    1052.82482910
I        0.00000000       0.00000000       0.63636364       0.00000000       0.00000000   -1052.82482910
2
Properties=species:S:1:pos:R:3:forces:R:3 energy=508.052558836066 pbc="F F F"
I        0.00000000       0.00000000       0.00000000       0.00000000       0.00000000    -260.43902588
I        0.00000000       0.00000000       0.69595960       0.00000000       0.00000000     260.43902588
2
Properties=species:S:1:pos:R:3:forces:R:3 energy=466.79611984566134 pbc="F F F"
I        0.00000000       0.00000000       0.00000000       0.00000000       0.00000000    -943.30871582
I        0.00000000       0.00000000       0.75555556       0.00000000       0.00000000     943.30871582
2
Properties=species:S:1:pos:R:3:forces:R:3 energy=406.55719804963854 pbc="F F F"
I        0.00000000       0.00000000       0.00000000       0.00000000       0.00000000   -1015.90930176
I        0.00000000       0.00000000       0.81515152       0.00000000       0.00000000    1015.90930176
2
Properties=species:S:1:pos:R:3:forces:R:3 energy=347.3405847521128 pbc="F F F"
I        0.00000000       0.00000000       0.00000000       0.00000000       0.00000000    -972.62530518
I        0.00000000       0.00000000       0.87474747       0.00000000       0.00000000     972.62530518
2
Properties=species:S:1:pos:R:3:forces:R:3 energy=292.7292572891876 pbc="F F F"
I        0.00000000       0.00000000       0.00000000       0.00000000       0.00000000    -834.69952393
I        0.00000000       0.00000000       0.93434343       0.00000000       0.00000000     834.69952393
2
Properties=species:S:1:pos:R:3:forces:R:3 energy=249.83945718246542 pbc="F F F"
I        0.00000000       0.00000000       0.00000000       0.00000000       0.00000000    -604.09124756
I        0.00000000       0.00000000       0.99393939       0.00000000       0.00000000     604.09124756
2
Properties=species:S:1:pos:R:3:forces:R:3 energy=219.19791790957925 pbc="F F F"
I        0.00000000       0.00000000       0.00000000       0.00000000       0.00000000    -443.19470215
I        0.00000000       0.00000000       1.05353535       0.00000000       0.00000000     443.19470215
2
Properties=species:S:1:pos:R:3:forces:R:3 energy=195.60949489640433 pbc="F F F"
I        0.00000000       0.00000000       0.00000000       0.00000000       0.00000000    -357.90240479
I        0.00000000       0.00000000       1.11313131       0.00000000       0.00000000     357.90240479
2
Properties=species:S:1:pos:R:3:forces:R:3 energy=174.55126955897822 pbc="F F F"
I        0.00000000       0.00000000       0.00000000       0.00000000       0.00000000    -367.09115601
I        0.00000000       0.00000000       1.17272727       0.00000000       0.00000000     367.09115601
2
Properties=species:S:1:pos:R:3:forces:R:3 energy=151.31453230404912 pbc="F F F"
I        0.00000000       0.00000000       0.00000000       0.00000000       0.00000000    -407.02032471
I        0.00000000       0.00000000       1.23232323       0.00000000       0.00000000     407.02032471
2
Properties=species:S:1:pos:R:3:forces:R:3 energy=126.72178542940641 pbc="F F F"
I        0.00000000       0.00000000       0.00000000       0.00000000       0.00000000    -411.96795654
I        0.00000000       0.00000000       1.29191919       0.00000000       0.00000000     411.96795654
2
Properties=species:S:1:pos:R:3:forces:R:3 energy=102.97435356900311 pbc="F F F"
I        0.00000000       0.00000000       0.00000000       0.00000000       0.00000000    -379.52120972
I        0.00000000       0.00000000       1.35151515       0.00000000       0.00000000     379.52120972
2
Properties=species:S:1:pos:R:3:forces:R:3 energy=81.96415130592692 pbc="F F F"
I        0.00000000       0.00000000       0.00000000       0.00000000       0.00000000    -323.29858398
I        0.00000000       0.00000000       1.41111111       0.00000000       0.00000000     323.29858398
2
Properties=species:S:1:pos:R:3:forces:R:3 energy=64.52806243218983 pbc="F F F"
I        0.00000000       0.00000000       0.00000000       0.00000000       0.00000000    -261.84671021
I        0.00000000       0.00000000       1.47070707       0.00000000       0.00000000     261.84671021
2
Properties=species:S:1:pos:R:3:forces:R:3 energy=50.59541232398431 pbc="F F F"
I        0.00000000       0.00000000       0.00000000       0.00000000       0.00000000    -209.17912292
I        0.00000000       0.00000000       1.53030303       0.00000000       0.00000000     209.17912292
2
Properties=species:S:1:pos:R:3:forces:R:3 energy=39.204619114254704 pbc="F F F"
I        0.00000000       0.00000000       0.00000000       0.00000000       0.00000000    -174.21542358
I        0.00000000       0.00000000       1.58989899       0.00000000       0.00000000     174.21542358
2
Properties=species:S:1:pos:R:3:forces:R:3 energy=29.869860511862992 pbc="F F F"
I        0.00000000       0.00000000       0.00000000       0.00000000       0.00000000    -138.75523376
I        0.00000000       0.00000000       1.64949495       0.00000000       0.00000000     138.75523376
2
Properties=species:S:1:pos:R:3:forces:R:3 energy=22.595417012622445 pbc="F F F"
I        0.00000000       0.00000000       0.00000000       0.00000000       0.00000000    -106.62164307
I        0.00000000       0.00000000       1.70909091       0.00000000       0.00000000     106.62164307
2
Properties=species:S:1:pos:R:3:forces:R:3 energy=16.997332173023228 pbc="F F F"
I        0.00000000       0.00000000       0.00000000       0.00000000       0.00000000     -82.52024078
I        0.00000000       0.00000000       1.76868687       0.00000000       0.00000000      82.52024078
2
Properties=species:S:1:pos:R:3:forces:R:3 energy=12.63380640776679 pbc="F F F"
I        0.00000000       0.00000000       0.00000000       0.00000000       0.00000000     -64.76490784
I        0.00000000       0.00000000       1.82828283       0.00000000       0.00000000      64.76490784
2
Properties=species:S:1:pos:R:3:forces:R:3 energy=9.195698256692559 pbc="F F F"
I        0.00000000       0.00000000       0.00000000       0.00000000       0.00000000     -51.18180466
I        0.00000000       0.00000000       1.88787879       0.00000000       0.00000000      51.18180466
2
Properties=species:S:1:pos:R:3:forces:R:3 energy=6.476302268292992 pbc="F F F"
I        0.00000000       0.00000000       0.00000000       0.00000000       0.00000000     -40.48586655
I        0.00000000       0.00000000       1.94747475       0.00000000       0.00000000      40.48586655
2
Properties=species:S:1:pos:R:3:forces:R:3 energy=4.328186866071431 pbc="F F F"
I        0.00000000       0.00000000       0.00000000       0.00000000       0.00000000     -31.90824318
I        0.00000000       0.00000000       2.00707071       0.00000000       0.00000000      31.90824318
2
Properties=species:S:1:pos:R:3:forces:R:3 energy=2.6410385551451294 pbc="F F F"
I        0.00000000       0.00000000       0.00000000       0.00000000       0.00000000     -24.95064545
I        0.00000000       0.00000000       2.06666667       0.00000000       0.00000000      24.95064545
2
Properties=species:S:1:pos:R:3:forces:R:3 energy=1.3285595215247712 pbc="F F F"
I        0.00000000       0.00000000       0.00000000       0.00000000       0.00000000     -19.29098701
I        0.00000000       0.00000000       2.12626263       0.00000000       0.00000000      19.29098701
2
Properties=species:S:1:pos:R:3:forces:R:3 energy=0.3203441853540986 pbc="F F F"
I        0.00000000       0.00000000       0.00000000       0.00000000       0.00000000     -14.70798683
I        0.00000000       0.00000000       2.18585859       0.00000000       0.00000000      14.70798683
2
Properties=species:S:1:pos:R:3:forces:R:3 energy=-0.4423407405840037 pbc="F F F"
I        0.00000000       0.00000000       0.00000000       0.00000000       0.00000000     -11.02294827
I        0.00000000       0.00000000       2.24545455       0.00000000       0.00000000      11.02294827
2
Properties=species:S:1:pos:R:3:forces:R:3 energy=-1.0081094442041418 pbc="F F F"
I        0.00000000       0.00000000       0.00000000       0.00000000       0.00000000      -8.07358074
I        0.00000000       0.00000000       2.30505051       0.00000000       0.00000000       8.07358074
2
Properties=species:S:1:pos:R:3:forces:R:3 energy=-1.4163223647747385 pbc="F F F"
I        0.00000000       0.00000000       0.00000000       0.00000000       0.00000000      -5.71284056
I        0.00000000       0.00000000       2.36464646       0.00000000       0.00000000       5.71284056
2
Properties=species:S:1:pos:R:3:forces:R:3 energy=-1.6982902596754628 pbc="F F F"
I        0.00000000       0.00000000       0.00000000       0.00000000       0.00000000      -3.81928539
I        0.00000000       0.00000000       2.42424242       0.00000000       0.00000000       3.81928539
2
Properties=species:S:1:pos:R:3:forces:R:3 energy=-1.8790610030959887 pbc="F F F"
I        0.00000000       0.00000000       0.00000000       0.00000000       0.00000000      -2.30483150
I        0.00000000       0.00000000       2.48383838       0.00000000       0.00000000       2.30483150
2
Properties=species:S:1:pos:R:3:forces:R:3 energy=-1.9793731993764905 pbc="F F F"
I        0.00000000       0.00000000       0.00000000       0.00000000       0.00000000      -1.11146355
I        0.00000000       0.00000000       2.54343434       0.00000000       0.00000000       1.11146355
2
Properties=species:S:1:pos:R:3:forces:R:3 energy=-2.0171084133316812 pbc="F F F"
I        0.00000000       0.00000000       0.00000000       0.00000000       0.00000000      -0.19860494
I        0.00000000       0.00000000       2.60303030       0.00000000       0.00000000       0.19860494
2
Properties=species:S:1:pos:R:3:forces:R:3 energy=-2.00787977703733 pbc="F F F"
I        0.00000000       0.00000000       0.00000000       0.00000000       0.00000000       0.47111624
I        0.00000000       0.00000000       2.66262626       0.00000000       0.00000000      -0.47111624
2
Properties=species:S:1:pos:R:3:forces:R:3 energy=-1.9649575433809954 pbc="F F F"
I        0.00000000       0.00000000       0.00000000       0.00000000       0.00000000       0.93946725
I        0.00000000       0.00000000       2.72222222       0.00000000       0.00000000      -0.93946725
2
Properties=species:S:1:pos:R:3:forces:R:3 energy=-1.8990320418055184 pbc="F F F"
I        0.00000000       0.00000000       0.00000000       0.00000000       0.00000000       1.25002527
I        0.00000000       0.00000000       2.78181818       0.00000000       0.00000000      -1.25002527
2
Properties=species:S:1:pos:R:3:forces:R:3 energy=-1.8183536406863738 pbc="F F F"
I        0.00000000       0.00000000       0.00000000       0.00000000       0.00000000       1.43979859
I        0.00000000       0.00000000       2.84141414       0.00000000       0.00000000      -1.43979859
2
Properties=species:S:1:pos:R:3:forces:R:3 energy=-1.72933298511149 pbc="F F F"
I        0.00000000       0.00000000       0.00000000       0.00000000       0.00000000       1.53292990
I        0.00000000       0.00000000       2.90101010       0.00000000       0.00000000      -1.53292990
2
Properties=species:S:1:pos:R:3:forces:R:3 energy=-1.6373038286284216 pbc="F F F"
I        0.00000000       0.00000000       0.00000000       0.00000000       0.00000000       1.54229772
I        0.00000000       0.00000000       2.96060606       0.00000000       0.00000000      -1.54229772
2
Properties=species:S:1:pos:R:3:forces:R:3 energy=-1.5469734376184947 pbc="F F F"
I        0.00000000       0.00000000       0.00000000       0.00000000       0.00000000       1.47788715
I        0.00000000       0.00000000       3.02020202       0.00000000       0.00000000      -1.47788715
2
Properties=species:S:1:pos:R:3:forces:R:3 energy=-1.462309209423202 pbc="F F F"
I        0.00000000       0.00000000       0.00000000       0.00000000       0.00000000       1.35553920
I        0.00000000       0.00000000       3.07979798       0.00000000       0.00000000      -1.35553920
2
Properties=species:S:1:pos:R:3:forces:R:3 energy=-1.3860803578073084 pbc="F F F"
I        0.00000000       0.00000000       0.00000000       0.00000000       0.00000000       1.19926107
I        0.00000000       0.00000000       3.13939394       0.00000000       0.00000000      -1.19926107
2
Properties=species:S:1:pos:R:3:forces:R:3 energy=-1.3194998871125614 pbc="F F F"
I        0.00000000       0.00000000       0.00000000       0.00000000       0.00000000       1.03607738
I        0.00000000       0.00000000       3.19898990       0.00000000       0.00000000      -1.03607738
2
Properties=species:S:1:pos:R:3:forces:R:3 energy=-1.2622788246448045 pbc="F F F"
I        0.00000000       0.00000000       0.00000000       0.00000000       0.00000000       0.88816071
I        0.00000000       0.00000000       3.25858586       0.00000000       0.00000000      -0.88816071
2
Properties=species:S:1:pos:R:3:forces:R:3 energy=-1.2130828849517177 pbc="F F F"
I        0.00000000       0.00000000       0.00000000       0.00000000       0.00000000       0.76785117
I        0.00000000       0.00000000       3.31818182       0.00000000       0.00000000      -0.76785117
2
Properties=species:S:1:pos:R:3:forces:R:3 energy=-1.170156711691547 pbc="F F F"
I        0.00000000       0.00000000       0.00000000       0.00000000       0.00000000       0.67748731
I        0.00000000       0.00000000       3.37777778       0.00000000       0.00000000      -0.67748731
2
Properties=species:S:1:pos:R:3:forces:R:3 energy=-1.1318246478766596 pbc="F F F"
I        0.00000000       0.00000000       0.00000000       0.00000000       0.00000000       0.61257893
I        0.00000000       0.00000000       3.43737374       0.00000000       0.00000000      -0.61257893
2
Properties=species:S:1:pos:R:3:forces:R:3 energy=-1.0967827354853534 pbc="F F F"
I        0.00000000       0.00000000       0.00000000       0.00000000       0.00000000       0.56578612
I        0.00000000       0.00000000       3.49696970       0.00000000       0.00000000      -0.56578612
2
Properties=species:S:1:pos:R:3:forces:R:3 energy=-1.0641681374581666 pbc="F F F"
I        0.00000000       0.00000000       0.00000000       0.00000000       0.00000000       0.53006679
I        0.00000000       0.00000000       3.55656566       0.00000000       0.00000000      -0.53006679
2
Properties=species:S:1:pos:R:3:forces:R:3 energy=-1.0334862912531564 pbc="F F F"
I        0.00000000       0.00000000       0.00000000       0.00000000       0.00000000       0.50028878
I        0.00000000       0.00000000       3.61616162       0.00000000       0.00000000      -0.50028878
2
Properties=species:S:1:pos:R:3:forces:R:3 energy=-1.0044824963609427 pbc="F F F"
I        0.00000000       0.00000000       0.00000000       0.00000000       0.00000000       0.47338748
I        0.00000000       0.00000000       3.67575758       0.00000000       0.00000000      -0.47338748
2
Properties=species:S:1:pos:R:3:forces:R:3 energy=-0.9770366055686767 pbc="F F F"
I        0.00000000       0.00000000       0.00000000       0.00000000       0.00000000       0.44784105
I        0.00000000       0.00000000       3.73535354       0.00000000       0.00000000      -0.44784105
2
Properties=species:S:1:pos:R:3:forces:R:3 energy=-0.9510885863830746 pbc="F F F"
I        0.00000000       0.00000000       0.00000000       0.00000000       0.00000000       0.42305654
I        0.00000000       0.00000000       3.79494949       0.00000000       0.00000000      -0.42305654
2
Properties=species:S:1:pos:R:3:forces:R:3 energy=-0.9265989173163678 pbc="F F F"
I        0.00000000       0.00000000       0.00000000       0.00000000       0.00000000       0.39891219
I        0.00000000       0.00000000       3.85454545       0.00000000       0.00000000      -0.39891219
2
Properties=species:S:1:pos:R:3:forces:R:3 energy=-0.9035279838623274 pbc="F F F"
I        0.00000000       0.00000000       0.00000000       0.00000000       0.00000000       0.37546286
I        0.00000000       0.00000000       3.91414141       0.00000000       0.00000000      -0.37546286
2
Properties=species:S:1:pos:R:3:forces:R:3 energy=-0.8818313970717746 pbc="F F F"
I        0.00000000       0.00000000       0.00000000       0.00000000       0.00000000       0.35277432
I        0.00000000       0.00000000       3.97373737       0.00000000       0.00000000      -0.35277432
2
Properties=species:S:1:pos:R:3:forces:R:3 energy=-0.8614640045667273 pbc="F F F"
I        0.00000000       0.00000000       0.00000000       0.00000000       0.00000000       0.33088318
I        0.00000000       0.00000000       4.03333333       0.00000000       0.00000000      -0.33088318
2
Properties=species:S:1:pos:R:3:forces:R:3 energy=-0.8423765048269264 pbc="F F F"
I        0.00000000       0.00000000       0.00000000       0.00000000       0.00000000       0.30982450
I        0.00000000       0.00000000       4.09292929       0.00000000       0.00000000      -0.30982450
2
Properties=species:S:1:pos:R:3:forces:R:3 energy=-0.8245170630988309 pbc="F F F"
I        0.00000000       0.00000000       0.00000000       0.00000000       0.00000000       0.28968617
I        0.00000000       0.00000000       4.15252525       0.00000000       0.00000000      -0.28968617
2
Properties=species:S:1:pos:R:3:forces:R:3 energy=-0.8078266541457529 pbc="F F F"
I        0.00000000       0.00000000       0.00000000       0.00000000       0.00000000       0.27063948
I        0.00000000       0.00000000       4.21212121       0.00000000       0.00000000      -0.27063948
2
Properties=species:S:1:pos:R:3:forces:R:3 energy=-0.7922322796536082 pbc="F F F"
I        0.00000000       0.00000000       0.00000000       0.00000000       0.00000000       0.25294173
I        0.00000000       0.00000000       4.27171717       0.00000000       0.00000000      -0.25294173
2
Properties=species:S:1:pos:R:3:forces:R:3 energy=-0.7776452682066167 pbc="F F F"
I        0.00000000       0.00000000       0.00000000       0.00000000       0.00000000       0.23689762
I        0.00000000       0.00000000       4.33131313       0.00000000       0.00000000      -0.23689762
2
Properties=species:S:1:pos:R:3:forces:R:3 energy=-0.7639575616243115 pbc="F F F"
I        0.00000000       0.00000000       0.00000000       0.00000000       0.00000000       0.22279423
I        0.00000000       0.00000000       4.39090909       0.00000000       0.00000000      -0.22279423
2
Properties=species:S:1:pos:R:3:forces:R:3 energy=-0.7510470001840154 pbc="F F F"
I        0.00000000       0.00000000       0.00000000       0.00000000       0.00000000       0.21083476
I        0.00000000       0.00000000       4.45050505       0.00000000       0.00000000      -0.21083476
2
Properties=species:S:1:pos:R:3:forces:R:3 energy=-0.7387838542051473 pbc="F F F"
I        0.00000000       0.00000000       0.00000000       0.00000000       0.00000000       0.20107889
I        0.00000000       0.00000000       4.51010101       0.00000000       0.00000000      -0.20107889
2
Properties=species:S:1:pos:R:3:forces:R:3 energy=-0.7270383974228904 pbc="F F F"
I        0.00000000       0.00000000       0.00000000       0.00000000       0.00000000       0.19341104
I        0.00000000       0.00000000       4.56969697       0.00000000       0.00000000      -0.19341104
2
Properties=species:S:1:pos:R:3:forces:R:3 energy=-0.7156947821991363 pbc="F F F"
I        0.00000000       0.00000000       0.00000000       0.00000000       0.00000000       0.18755116
I        0.00000000       0.00000000       4.62929293       0.00000000       0.00000000      -0.18755116
2
Properties=species:S:1:pos:R:3:forces:R:3 energy=-0.7046561986160506 pbc="F F F"
I        0.00000000       0.00000000       0.00000000       0.00000000       0.00000000       0.18310142
I        0.00000000       0.00000000       4.68888889       0.00000000       0.00000000      -0.18310142
2
Properties=species:S:1:pos:R:3:forces:R:3 energy=-0.6938509715728625 pbc="F F F"
I        0.00000000       0.00000000       0.00000000       0.00000000       0.00000000       0.17963701
I        0.00000000       0.00000000       4.74848485       0.00000000       0.00000000      -0.17963701
2
Properties=species:S:1:pos:R:3:forces:R:3 energy=-0.6832314318813946 pbc="F F F"
I        0.00000000       0.00000000       0.00000000       0.00000000       0.00000000       0.17686318
I        0.00000000       0.00000000       4.80808081       0.00000000       0.00000000      -0.17686318
2
Properties=species:S:1:pos:R:3:forces:R:3 energy=-0.672756057631362 pbc="F F F"
I        0.00000000       0.00000000       0.00000000       0.00000000       0.00000000       0.17481518
I        0.00000000       0.00000000       4.86767677       0.00000000       0.00000000      -0.17481518
2
Properties=species:S:1:pos:R:3:forces:R:3 energy=-0.6623681040493209 pbc="F F F"
I        0.00000000       0.00000000       0.00000000       0.00000000       0.00000000       0.17410374
I        0.00000000       0.00000000       4.92727273       0.00000000       0.00000000      -0.17410374
2
Properties=species:S:1:pos:R:3:forces:R:3 energy=-0.6519506362539305 pbc="F F F"
I        0.00000000       0.00000000       0.00000000       0.00000000       0.00000000       0.17611209
I        0.00000000       0.00000000       4.98686869       0.00000000       0.00000000      -0.17611209
2
Properties=species:S:1:pos:R:3:forces:R:3 energy=-0.6412819208070364 pbc="F F F"
I        0.00000000       0.00000000       0.00000000       0.00000000       0.00000000       0.18298979
I        0.00000000       0.00000000       5.04646465       0.00000000       0.00000000      -0.18298979
2
Properties=species:S:1:pos:R:3:forces:R:3 energy=-0.6299945490146668 pbc="F F F"
I        0.00000000       0.00000000       0.00000000       0.00000000       0.00000000       0.19719993
I        0.00000000       0.00000000       5.10606061       0.00000000       0.00000000      -0.19719993
2
Properties=species:S:1:pos:R:3:forces:R:3 energy=-0.6175953555498065 pbc="F F F"
I        0.00000000       0.00000000       0.00000000       0.00000000       0.00000000       0.22035569
I        0.00000000       0.00000000       5.16565657       0.00000000       0.00000000      -0.22035569
2
Properties=species:S:1:pos:R:3:forces:R:3 energy=-0.6035704792663803 pbc="F F F"
I        0.00000000       0.00000000       0.00000000       0.00000000       0.00000000       0.25130099
I        0.00000000       0.00000000       5.22525253       0.00000000       0.00000000      -0.25130099
2
Properties=species:S:1:pos:R:3:forces:R:3 energy=-0.5876076922760639 pbc="F F F"
I        0.00000000       0.00000000       0.00000000       0.00000000       0.00000000       0.28385976
I        0.00000000       0.00000000       5.28484848       0.00000000       0.00000000      -0.28385976
2
Properties=species:S:1:pos:R:3:forces:R:3 energy=-0.5699234543859641 pbc="F F F"
I        0.00000000       0.00000000       0.00000000       0.00000000       0.00000000       0.30711555
I        0.00000000       0.00000000       5.34444444       0.00000000       0.00000000      -0.30711555
2
Properties=species:S:1:pos:R:3:forces:R:3 energy=-0.5513066080549732 pbc="F F F"
I        0.00000000       0.00000000       0.00000000       0.00000000       0.00000000       0.31597233
I        0.00000000       0.00000000       5.40404040       0.00000000       0.00000000      -0.31597233
2
Properties=species:S:1:pos:R:3:forces:R:3 energy=-0.5321680615283781 pbc="F F F"
I        0.00000000       0.00000000       0.00000000       0.00000000       0.00000000       0.32954061
I        0.00000000       0.00000000       5.46363636       0.00000000       0.00000000      -0.32954061
2
Properties=species:S:1:pos:R:3:forces:R:3 energy=-0.5116151389999213 pbc="F F F"
I        0.00000000       0.00000000       0.00000000       0.00000000       0.00000000       0.36133596
I        0.00000000       0.00000000       5.52323232       0.00000000       0.00000000      -0.36133596
2
Properties=species:S:1:pos:R:3:forces:R:3 energy=-0.48962613269938376 pbc="F F F"
I        0.00000000       0.00000000       0.00000000       0.00000000       0.00000000       0.36830729
I        0.00000000       0.00000000       5.58282828       0.00000000       0.00000000      -0.36830729
2
Properties=species:S:1:pos:R:3:forces:R:3 energy=-0.4686315207517315 pbc="F F F"
I        0.00000000       0.00000000       0.00000000       0.00000000       0.00000000       0.33170259
I        0.00000000       0.00000000       5.64242424       0.00000000       0.00000000      -0.33170259
2
Properties=species:S:1:pos:R:3:forces:R:3 energy=-0.4499847139714736 pbc="F F F"
I        0.00000000       0.00000000       0.00000000       0.00000000       0.00000000       0.30046895
I        0.00000000       0.00000000       5.70202020       0.00000000       0.00000000      -0.30046895
2
Properties=species:S:1:pos:R:3:forces:R:3 energy=-0.43161562198654463 pbc="F F F"
I        0.00000000       0.00000000       0.00000000       0.00000000       0.00000000       0.32452577
I        0.00000000       0.00000000       5.76161616       0.00000000       0.00000000      -0.32452577
2
Properties=species:S:1:pos:R:3:forces:R:3 energy=-0.41171552525196436 pbc="F F F"
I        0.00000000       0.00000000       0.00000000       0.00000000       0.00000000       0.32641187
I        0.00000000       0.00000000       5.82121212       0.00000000       0.00000000      -0.32641187
2
Properties=species:S:1:pos:R:3:forces:R:3 energy=-0.39522108513630494 pbc="F F F"
I        0.00000000       0.00000000       0.00000000       0.00000000       0.00000000       0.21252199
I        0.00000000       0.00000000       5.88080808       0.00000000       0.00000000      -0.21252199
2
Properties=species:S:1:pos:R:3:forces:R:3 energy=-0.38696898730390544 pbc="F F F"
I        0.00000000       0.00000000       0.00000000       0.00000000       0.00000000       0.06758779
I        0.00000000       0.00000000       5.94040404       0.00000000       0.00000000      -0.06758779
2
Properties=species:S:1:pos:R:3:forces:R:3 energy=-0.38539647452824943 pbc="F F F"
I        0.00000000       0.00000000       0.00000000       0.00000000       0.00000000       0.00598860
I        0.00000000       0.00000000       6.00000000       0.00000000       0.00000000      -0.00598860
