2
Properties=species:S:1:pos:R:3:forces:R:3 energy=14873.064690350311 pbc="F F F"
K        0.00000000       0.00000000       0.00000000       0.00000000       0.00000000 -191344.75000000
K        0.00000000       0.00000000       0.10000000       0.00000000       0.00000000  191344.75000000
2
Properties=species:S:1:pos:R:3:forces:R:3 energy=8942.212151287811 pbc="F F F"
K        0.00000000       0.00000000       0.00000000       0.00000000       0.00000000  -47672.08203125
K        0.00000000       0.00000000       0.15959596       0.00000000       0.00000000   47672.08203125
2
Properties=species:S:1:pos:R:3:forces:R:3 energy=7206.48070597531 pbc="F F F"
K        0.00000000       0.00000000       0.00000000       0.00000000       0.00000000  -17215.81640625
K        0.00000000       0.00000000       0.21919192       0.00000000       0.00000000   17215.81640625
2
Properties=species:S:1:pos:R:3:forces:R:3 energy=6479.69847941281 pbc="F F F"
K        0.00000000       0.00000000       0.00000000       0.00000000       0.00000000   -8936.94238281
K        0.00000000       0.00000000       0.27878788       0.00000000       0.00000000    8936.94238281
2
Properties=species:S:1:pos:R:3:forces:R:3 energy=6013.030998945645 pbc="F F F"
K        0.00000000       0.00000000       0.00000000       0.00000000       0.00000000   -7392.75683594
K        0.00000000       0.00000000       0.33838384       0.00000000       0.00000000    7392.75683594
2
Properties=species:S:1:pos:R:3:forces:R:3 energy=5542.054436445645 pbc="F F F"
K        0.00000000       0.00000000       0.00000000       0.00000000       0.00000000   -8752.44042969
K        0.00000000       0.00000000       0.39797980       0.00000000       0.00000000    8752.44042969
2
Properties=species:S:1:pos:R:3:forces:R:3 energy=4940.707756759728 pbc="F F F"
K        0.00000000       0.00000000       0.00000000       0.00000000       0.00000000  -11583.87792969
K        0.00000000       0.00000000       0.45757576       0.00000000       0.00000000   11583.87792969
2
Properties=species:S:1:pos:R:3:forces:R:3 energy=4153.591545825396 pbc="F F F"
K        0.00000000       0.00000000       0.00000000       0.00000000       0.00000000  -14795.21191406
K        0.00000000       0.00000000       0.51717172       0.00000000       0.00000000   14795.21191406
2
Properties=species:S:1:pos:R:3:forces:R:3 energy=3194.918938408273 pbc="F F F"
K        0.00000000       0.00000000       0.00000000       0.00000000       0.00000000  -17113.37109375
K        0.00000000       0.00000000       0.57676768       0.00000000       0.00000000   17113.37109375
2
Properties=species:S:1:pos:R:3:forces:R:3 energy=2157.889885683401 pbc="F F F"
K        0.00000000       0.00000000       0.00000000       0.00000000       0.00000000  -17233.67578125
K        0.00000000       0.00000000       0.63636364       0.00000000       0.00000000   17233.67578125
2
Properties=species:S:1:pos:R:3:forces:R:3 energy=1197.6403739789066 pbc="F F F"
K        0.00000000       0.00000000       0.00000000       0.00000000       0.00000000  -14555.24804688
K        0.00000000       0.00000000       0.69595960       0.00000000       0.00000000   14555.24804688
2
Properties=species:S:1:pos:R:3:forces:R:3 energy=452.7257621830912 pbc="F F F"
K        0.00000000       0.00000000       0.00000000       0.00000000       0.00000000  -10209.02441406
K        0.00000000       0.00000000       0.75555556       0.00000000       0.00000000   10209.02441406
2
Properties=species:S:1:pos:R:3:forces:R:3 energy=219.65139088004662 pbc="F F F"
K        0.00000000       0.00000000       0.00000000       0.00000000       0.00000000   -1833.43713379
K        0.00000000       0.00000000       0.81515152       0.00000000       0.00000000    1833.43713379
2
Properties=species:S:1:pos:R:3:forces:R:3 energy=126.56980218244678 pbc="F F F"
K        0.00000000       0.00000000       0.00000000       0.00000000       0.00000000   -1283.55468750
K        0.00000000       0.00000000       0.87474747       0.00000000       0.00000000    1283.55468750
2
Properties=species:S:1:pos:R:3:forces:R:3 energy=67.10170837690073 pbc="F F F"
K        0.00000000       0.00000000       0.00000000       0.00000000       0.00000000    -707.48504639
K        0.00000000       0.00000000       0.93434343       0.00000000       0.00000000     707.48504639
2
Properties=species:S:1:pos:R:3:forces:R:3 energy=39.9454889879296 pbc="F F F"
K        0.00000000       0.00000000       0.00000000       0.00000000       0.00000000    -247.25721741
K        0.00000000       0.00000000       0.99393939       0.00000000       0.00000000     247.25721741
2
Properties=species:S:1:pos:R:3:forces:R:3 energy=31.976084895645347 pbc="F F F"
K        0.00000000       0.00000000       0.00000000       0.00000000       0.00000000      -2.81606412
K        0.00000000       0.00000000       1.05353535       0.00000000       0.00000000       2.81606412
2
Properties=species:S:1:pos:R:3:forces:R:3 energy=40.72189461859363 pbc="F F F"
K        0.00000000       0.00000000       0.00000000       0.00000000       0.00000000     262.59243774
K        0.00000000       0.00000000       1.11313131       0.00000000       0.00000000    -262.59243774
2
Properties=species:S:1:pos:R:3:forces:R:3 energy=54.97006760193486 pbc="F F F"
K        0.00000000       0.00000000       0.00000000       0.00000000       0.00000000      40.42629242
K        0.00000000       0.00000000       1.17272727       0.00000000       0.00000000     -40.42629242
2
Properties=species:S:1:pos:R:3:forces:R:3 energy=49.50918761224957 pbc="F F F"
K        0.00000000       0.00000000       0.00000000       0.00000000       0.00000000    -131.74201965
K        0.00000000       0.00000000       1.23232323       0.00000000       0.00000000     131.74201965
2
Properties=species:S:1:pos:R:3:forces:R:3 energy=41.60222463449609 pbc="F F F"
K        0.00000000       0.00000000       0.00000000       0.00000000       0.00000000    -127.27648163
K        0.00000000       0.00000000       1.29191919       0.00000000       0.00000000     127.27648163
2
Properties=species:S:1:pos:R:3:forces:R:3 energy=34.45247535064221 pbc="F F F"
K        0.00000000       0.00000000       0.00000000       0.00000000       0.00000000    -113.72436523
K        0.00000000       0.00000000       1.35151515       0.00000000       0.00000000     113.72436523
2
Properties=species:S:1:pos:R:3:forces:R:3 energy=28.018306175321758 pbc="F F F"
K        0.00000000       0.00000000       0.00000000       0.00000000       0.00000000    -101.70711517
K        0.00000000       0.00000000       1.41111111       0.00000000       0.00000000     101.70711517
2
Properties=species:S:1:pos:R:3:forces:R:3 energy=22.40505999886753 pbc="F F F"
K        0.00000000       0.00000000       0.00000000       0.00000000       0.00000000     -86.14325714
K        0.00000000       0.00000000       1.47070707       0.00000000       0.00000000      86.14325714
2
Properties=species:S:1:pos:R:3:forces:R:3 energy=17.788018371280312 pbc="F F F"
K        0.00000000       0.00000000       0.00000000       0.00000000       0.00000000     -68.71498871
K        0.00000000       0.00000000       1.53030303       0.00000000       0.00000000      68.71498871
2
Properties=species:S:1:pos:R:3:forces:R:3 energy=14.19409306452473 pbc="F F F"
K        0.00000000       0.00000000       0.00000000       0.00000000       0.00000000     -52.33307266
K        0.00000000       0.00000000       1.58989899       0.00000000       0.00000000      52.33307266
2
Properties=species:S:1:pos:R:3:forces:R:3 energy=11.47516609434282 pbc="F F F"
K        0.00000000       0.00000000       0.00000000       0.00000000       0.00000000     -39.64891434
K        0.00000000       0.00000000       1.64949495       0.00000000       0.00000000      39.64891434
2
Properties=species:S:1:pos:R:3:forces:R:3 energy=9.382856845657258 pbc="F F F"
K        0.00000000       0.00000000       0.00000000       0.00000000       0.00000000     -31.20587921
K        0.00000000       0.00000000       1.70909091       0.00000000       0.00000000      31.20587921
2
Properties=species:S:1:pos:R:3:forces:R:3 energy=7.693879686184822 pbc="F F F"
K        0.00000000       0.00000000       0.00000000       0.00000000       0.00000000     -25.86741066
K        0.00000000       0.00000000       1.76868687       0.00000000       0.00000000      25.86741066
2
Properties=species:S:1:pos:R:3:forces:R:3 energy=6.266971666412541 pbc="F F F"
K        0.00000000       0.00000000       0.00000000       0.00000000       0.00000000     -22.18903732
K        0.00000000       0.00000000       1.82828283       0.00000000       0.00000000      22.18903732
2
Properties=species:S:1:pos:R:3:forces:R:3 energy=5.0374451160632905 pbc="F F F"
K        0.00000000       0.00000000       0.00000000       0.00000000       0.00000000     -19.12339973
K        0.00000000       0.00000000       1.88787879       0.00000000       0.00000000      19.12339973
2
Properties=species:S:1:pos:R:3:forces:R:3 energy=3.9834943463362618 pbc="F F F"
K        0.00000000       0.00000000       0.00000000       0.00000000       0.00000000     -16.27890015
K        0.00000000       0.00000000       1.94747475       0.00000000       0.00000000      16.27890015
2
Properties=species:S:1:pos:R:3:forces:R:3 energy=3.0925244886453434 pbc="F F F"
K        0.00000000       0.00000000       0.00000000       0.00000000       0.00000000     -13.66635895
K        0.00000000       0.00000000       2.00707071       0.00000000       0.00000000      13.66635895
2
Properties=species:S:1:pos:R:3:forces:R:3 energy=2.348842207141265 pbc="F F F"
K        0.00000000       0.00000000       0.00000000       0.00000000       0.00000000     -11.34088707
K        0.00000000       0.00000000       2.06666667       0.00000000       0.00000000      11.34088707
2
Properties=species:S:1:pos:R:3:forces:R:3 energy=1.7348134450765131 pbc="F F F"
K        0.00000000       0.00000000       0.00000000       0.00000000       0.00000000      -9.31588268
K        0.00000000       0.00000000       2.12626263       0.00000000       0.00000000       9.31588268
2
Properties=species:S:1:pos:R:3:forces:R:3 energy=1.232357474831272 pbc="F F F"
K        0.00000000       0.00000000       0.00000000       0.00000000       0.00000000      -7.59848738
K        0.00000000       0.00000000       2.18585859       0.00000000       0.00000000       7.59848738
2
Properties=species:S:1:pos:R:3:forces:R:3 energy=0.8227995663189157 pbc="F F F"
K        0.00000000       0.00000000       0.00000000       0.00000000       0.00000000      -6.19934177
K        0.00000000       0.00000000       2.24545455       0.00000000       0.00000000       6.19934177
2
Properties=species:S:1:pos:R:3:forces:R:3 energy=0.48725387613666893 pbc="F F F"
K        0.00000000       0.00000000       0.00000000       0.00000000       0.00000000      -5.11026669
K        0.00000000       0.00000000       2.30505051       0.00000000       0.00000000       5.11026669
2
Properties=species:S:1:pos:R:3:forces:R:3 energy=0.20847561338473358 pbc="F F F"
K        0.00000000       0.00000000       0.00000000       0.00000000       0.00000000      -4.28311539
K        0.00000000       0.00000000       2.36464646       0.00000000       0.00000000       4.28311539
2
Properties=species:S:1:pos:R:3:forces:R:3 energy=-0.026992684898404434 pbc="F F F"
K        0.00000000       0.00000000       0.00000000       0.00000000       0.00000000      -3.64442158
K        0.00000000       0.00000000       2.42424242       0.00000000       0.00000000       3.64442158
2
Properties=species:S:1:pos:R:3:forces:R:3 energy=-0.2283912720125936 pbc="F F F"
K        0.00000000       0.00000000       0.00000000       0.00000000       0.00000000      -3.13156438
K        0.00000000       0.00000000       2.48383838       0.00000000       0.00000000       3.13156438
2
Properties=species:S:1:pos:R:3:forces:R:3 energy=-0.4020087881678954 pbc="F F F"
K        0.00000000       0.00000000       0.00000000       0.00000000       0.00000000      -2.70778275
K        0.00000000       0.00000000       2.54343434       0.00000000       0.00000000       2.70778275
2
Properties=species:S:1:pos:R:3:forces:R:3 energy=-0.5524928762162931 pbc="F F F"
K        0.00000000       0.00000000       0.00000000       0.00000000       0.00000000      -2.35241008
K        0.00000000       0.00000000       2.60303030       0.00000000       0.00000000       2.35241008
2
Properties=species:S:1:pos:R:3:forces:R:3 energy=-0.6834541818597126 pbc="F F F"
K        0.00000000       0.00000000       0.00000000       0.00000000       0.00000000      -2.05029273
K        0.00000000       0.00000000       2.66262626       0.00000000       0.00000000       2.05029273
2
Properties=species:S:1:pos:R:3:forces:R:3 energy=-0.797690676668585 pbc="F F F"
K        0.00000000       0.00000000       0.00000000       0.00000000       0.00000000      -1.78951037
K        0.00000000       0.00000000       2.72222222       0.00000000       0.00000000       1.78951037
2
Properties=species:S:1:pos:R:3:forces:R:3 energy=-0.8974024865388663 pbc="F F F"
K        0.00000000       0.00000000       0.00000000       0.00000000       0.00000000      -1.56172884
K        0.00000000       0.00000000       2.78181818       0.00000000       0.00000000       1.56172884
2
Properties=species:S:1:pos:R:3:forces:R:3 energy=-0.9843845228165746 pbc="F F F"
K        0.00000000       0.00000000       0.00000000       0.00000000       0.00000000      -1.36162364
K        0.00000000       0.00000000       2.84141414       0.00000000       0.00000000       1.36162364
2
Properties=species:S:1:pos:R:3:forces:R:3 energy=-1.0601796947452617 pbc="F F F"
K        0.00000000       0.00000000       0.00000000       0.00000000       0.00000000      -1.18589318
K        0.00000000       0.00000000       2.90101010       0.00000000       0.00000000       1.18589318
2
Properties=species:S:1:pos:R:3:forces:R:3 energy=-1.1261765729684015 pbc="F F F"
K        0.00000000       0.00000000       0.00000000       0.00000000       0.00000000      -1.03250742
K        0.00000000       0.00000000       2.96060606       0.00000000       0.00000000       1.03250742
2
Properties=species:S:1:pos:R:3:forces:R:3 energy=-1.1836609750575833 pbc="F F F"
K        0.00000000       0.00000000       0.00000000       0.00000000       0.00000000      -0.90002924
K        0.00000000       0.00000000       3.02020202       0.00000000       0.00000000       0.90002924
2
Properties=species:S:1:pos:R:3:forces:R:3 energy=-1.233837232115369 pbc="F F F"
K        0.00000000       0.00000000       0.00000000       0.00000000       0.00000000      -0.78689194
K        0.00000000       0.00000000       3.07979798       0.00000000       0.00000000       0.78689194
2
Properties=species:S:1:pos:R:3:forces:R:3 energy=-1.2777934125089165 pbc="F F F"
K        0.00000000       0.00000000       0.00000000       0.00000000       0.00000000      -0.69084078
K        0.00000000       0.00000000       3.13939394       0.00000000       0.00000000       0.69084078
2
Properties=species:S:1:pos:R:3:forces:R:3 energy=-1.3164595637725942 pbc="F F F"
K        0.00000000       0.00000000       0.00000000       0.00000000       0.00000000      -0.60885131
K        0.00000000       0.00000000       3.19898990       0.00000000       0.00000000       0.60885131
2
Properties=species:S:1:pos:R:3:forces:R:3 energy=-1.350574826683175 pbc="F F F"
K        0.00000000       0.00000000       0.00000000       0.00000000       0.00000000      -0.53754354
K        0.00000000       0.00000000       3.25858586       0.00000000       0.00000000       0.53754354
2
Properties=species:S:1:pos:R:3:forces:R:3 energy=-1.3806801044725046 pbc="F F F"
K        0.00000000       0.00000000       0.00000000       0.00000000       0.00000000      -0.47382534
K        0.00000000       0.00000000       3.31818182       0.00000000       0.00000000       0.47382534
2
Properties=species:S:1:pos:R:3:forces:R:3 energy=-1.4071547998795286 pbc="F F F"
K        0.00000000       0.00000000       0.00000000       0.00000000       0.00000000      -0.41537890
K        0.00000000       0.00000000       3.37777778       0.00000000       0.00000000       0.41537890
2
Properties=species:S:1:pos:R:3:forces:R:3 energy=-1.4302669606635454 pbc="F F F"
K        0.00000000       0.00000000       0.00000000       0.00000000       0.00000000      -0.36081332
K        0.00000000       0.00000000       3.43737374       0.00000000       0.00000000       0.36081332
2
Properties=species:S:1:pos:R:3:forces:R:3 energy=-1.4502244821619554 pbc="F F F"
K        0.00000000       0.00000000       0.00000000       0.00000000       0.00000000      -0.30945772
K        0.00000000       0.00000000       3.49696970       0.00000000       0.00000000       0.30945772
2
Properties=species:S:1:pos:R:3:forces:R:3 energy=-1.4672084680523543 pbc="F F F"
K        0.00000000       0.00000000       0.00000000       0.00000000       0.00000000      -0.26094767
K        0.00000000       0.00000000       3.55656566       0.00000000       0.00000000       0.26094767
2
Properties=species:S:1:pos:R:3:forces:R:3 energy=-1.4813761194699233 pbc="F F F"
K        0.00000000       0.00000000       0.00000000       0.00000000       0.00000000      -0.21487059
K        0.00000000       0.00000000       3.61616162       0.00000000       0.00000000       0.21487059
2
Properties=species:S:1:pos:R:3:forces:R:3 energy=-1.4928553285757926 pbc="F F F"
K        0.00000000       0.00000000       0.00000000       0.00000000       0.00000000      -0.17060070
K        0.00000000       0.00000000       3.67575758       0.00000000       0.00000000       0.17060070
2
Properties=species:S:1:pos:R:3:forces:R:3 energy=-1.5017315567837184 pbc="F F F"
K        0.00000000       0.00000000       0.00000000       0.00000000       0.00000000      -0.12739694
K        0.00000000       0.00000000       3.73535354       0.00000000       0.00000000       0.12739694
2
Properties=species:S:1:pos:R:3:forces:R:3 energy=-1.508048591117582 pbc="F F F"
K        0.00000000       0.00000000       0.00000000       0.00000000       0.00000000      -0.08464302
K        0.00000000       0.00000000       3.79494949       0.00000000       0.00000000       0.08464302
2
Properties=species:S:1:pos:R:3:forces:R:3 energy=-1.5118238662769712 pbc="F F F"
K        0.00000000       0.00000000       0.00000000       0.00000000       0.00000000      -0.04209386
K        0.00000000       0.00000000       3.85454545       0.00000000       0.00000000       0.04209386
2
Properties=species:S:1:pos:R:3:forces:R:3 energy=-1.5130744310956494 pbc="F F F"
K        0.00000000       0.00000000       0.00000000       0.00000000       0.00000000       0.00002202
K        0.00000000       0.00000000       3.91414141       0.00000000       0.00000000      -0.00002202
2
Properties=species:S:1:pos:R:3:forces:R:3 energy=-1.5118428210533872 pbc="F F F"
K        0.00000000       0.00000000       0.00000000       0.00000000       0.00000000       0.04105629
K        0.00000000       0.00000000       3.97373737       0.00000000       0.00000000      -0.04105629
2
Properties=species:S:1:pos:R:3:forces:R:3 energy=-1.5082195654253898 pbc="F F F"
K        0.00000000       0.00000000       0.00000000       0.00000000       0.00000000       0.08012588
K        0.00000000       0.00000000       4.03333333       0.00000000       0.00000000      -0.08012588
2
Properties=species:S:1:pos:R:3:forces:R:3 energy=-1.5023495878506132 pbc="F F F"
K        0.00000000       0.00000000       0.00000000       0.00000000       0.00000000       0.11631577
K        0.00000000       0.00000000       4.09292929       0.00000000       0.00000000      -0.11631577
2
Properties=species:S:1:pos:R:3:forces:R:3 energy=-1.4944292146451912 pbc="F F F"
K        0.00000000       0.00000000       0.00000000       0.00000000       0.00000000       0.14880097
K        0.00000000       0.00000000       4.15252525       0.00000000       0.00000000      -0.14880097
2
Properties=species:S:1:pos:R:3:forces:R:3 energy=-1.484701955793634 pbc="F F F"
K        0.00000000       0.00000000       0.00000000       0.00000000       0.00000000       0.17685203
K        0.00000000       0.00000000       4.21212121       0.00000000       0.00000000      -0.17685203
2
Properties=species:S:1:pos:R:3:forces:R:3 energy=-1.4734532439517267 pbc="F F F"
K        0.00000000       0.00000000       0.00000000       0.00000000       0.00000000       0.19971129
K        0.00000000       0.00000000       4.27171717       0.00000000       0.00000000      -0.19971129
2
Properties=species:S:1:pos:R:3:forces:R:3 energy=-1.4610217634611977 pbc="F F F"
K        0.00000000       0.00000000       0.00000000       0.00000000       0.00000000       0.21633005
K        0.00000000       0.00000000       4.33131313       0.00000000       0.00000000      -0.21633005
2
Properties=species:S:1:pos:R:3:forces:R:3 energy=-1.4478242415204898 pbc="F F F"
K        0.00000000       0.00000000       0.00000000       0.00000000       0.00000000       0.22506571
K        0.00000000       0.00000000       4.39090909       0.00000000       0.00000000      -0.22506571
2
Properties=species:S:1:pos:R:3:forces:R:3 energy=-1.4343974600509384 pbc="F F F"
K        0.00000000       0.00000000       0.00000000       0.00000000       0.00000000       0.22362027
K        0.00000000       0.00000000       4.45050505       0.00000000       0.00000000      -0.22362027
2
Properties=species:S:1:pos:R:3:forces:R:3 energy=-1.4214142395991536 pbc="F F F"
K        0.00000000       0.00000000       0.00000000       0.00000000       0.00000000       0.21000992
K        0.00000000       0.00000000       4.51010101       0.00000000       0.00000000      -0.21000992
2
Properties=species:S:1:pos:R:3:forces:R:3 energy=-1.4095865276236177 pbc="F F F"
K        0.00000000       0.00000000       0.00000000       0.00000000       0.00000000       0.18555035
K        0.00000000       0.00000000       4.56969697       0.00000000       0.00000000      -0.18555035
2
Properties=species:S:1:pos:R:3:forces:R:3 energy=-1.3993445194650305 pbc="F F F"
K        0.00000000       0.00000000       0.00000000       0.00000000       0.00000000       0.15906306
K        0.00000000       0.00000000       4.62929293       0.00000000       0.00000000      -0.15906306
2
Properties=species:S:1:pos:R:3:forces:R:3 energy=-1.3903398692572666 pbc="F F F"
K        0.00000000       0.00000000       0.00000000       0.00000000       0.00000000       0.14705628
K        0.00000000       0.00000000       4.68888889       0.00000000       0.00000000      -0.14705628
2
Properties=species:S:1:pos:R:3:forces:R:3 energy=-1.3812167776862592 pbc="F F F"
K        0.00000000       0.00000000       0.00000000       0.00000000       0.00000000       0.16472727
K        0.00000000       0.00000000       4.74848485       0.00000000       0.00000000      -0.16472727
2
Properties=species:S:1:pos:R:3:forces:R:3 energy=-1.3700611025659413 pbc="F F F"
K        0.00000000       0.00000000       0.00000000       0.00000000       0.00000000       0.21436191
K        0.00000000       0.00000000       4.80808081       0.00000000       0.00000000      -0.21436191
2
Properties=species:S:1:pos:R:3:forces:R:3 energy=-1.3552526046277031 pbc="F F F"
K        0.00000000       0.00000000       0.00000000       0.00000000       0.00000000       0.28474092
K        0.00000000       0.00000000       4.86767677       0.00000000       0.00000000      -0.28474092
2
Properties=species:S:1:pos:R:3:forces:R:3 energy=-1.335998273379818 pbc="F F F"
K        0.00000000       0.00000000       0.00000000       0.00000000       0.00000000       0.36153999
K        0.00000000       0.00000000       4.92727273       0.00000000       0.00000000      -0.36153999
2
Properties=species:S:1:pos:R:3:forces:R:3 energy=-1.3121972913002629 pbc="F F F"
K        0.00000000       0.00000000       0.00000000       0.00000000       0.00000000       0.43674213
K        0.00000000       0.00000000       4.98686869       0.00000000       0.00000000      -0.43674213
2
Properties=species:S:1:pos:R:3:forces:R:3 energy=-1.2839767355219107 pbc="F F F"
K        0.00000000       0.00000000       0.00000000       0.00000000       0.00000000       0.51053983
K        0.00000000       0.00000000       5.04646465       0.00000000       0.00000000      -0.51053983
2
Properties=species:S:1:pos:R:3:forces:R:3 energy=-1.25128284527093 pbc="F F F"
K        0.00000000       0.00000000       0.00000000       0.00000000       0.00000000       0.58751738
K        0.00000000       0.00000000       5.10606061       0.00000000       0.00000000      -0.58751738
2
Properties=species:S:1:pos:R:3:forces:R:3 energy=-1.2138270546515286 pbc="F F F"
K        0.00000000       0.00000000       0.00000000       0.00000000       0.00000000       0.66998202
K        0.00000000       0.00000000       5.16565657       0.00000000       0.00000000      -0.66998202
2
Properties=species:S:1:pos:R:3:forces:R:3 energy=-1.171461293620547 pbc="F F F"
K        0.00000000       0.00000000       0.00000000       0.00000000       0.00000000       0.74994761
K        0.00000000       0.00000000       5.22525253       0.00000000       0.00000000      -0.74994761
2
Properties=species:S:1:pos:R:3:forces:R:3 energy=-1.1249634917689115 pbc="F F F"
K        0.00000000       0.00000000       0.00000000       0.00000000       0.00000000       0.80337226
K        0.00000000       0.00000000       5.28484848       0.00000000       0.00000000      -0.80337226
2
Properties=species:S:1:pos:R:3:forces:R:3 energy=-1.0768194229849697 pbc="F F F"
K        0.00000000       0.00000000       0.00000000       0.00000000       0.00000000       0.80239218
K        0.00000000       0.00000000       5.34444444       0.00000000       0.00000000      -0.80239218
2
Properties=species:S:1:pos:R:3:forces:R:3 energy=-1.0299738510853358 pbc="F F F"
K        0.00000000       0.00000000       0.00000000       0.00000000       0.00000000       0.77269369
K        0.00000000       0.00000000       5.40404040       0.00000000       0.00000000      -0.77269369
2
Properties=species:S:1:pos:R:3:forces:R:3 energy=-0.9830417195621934 pbc="F F F"
K        0.00000000       0.00000000       0.00000000       0.00000000       0.00000000       0.82297105
K        0.00000000       0.00000000       5.46363636       0.00000000       0.00000000      -0.82297105
2
Properties=species:S:1:pos:R:3:forces:R:3 energy=-0.9303477368452133 pbc="F F F"
K        0.00000000       0.00000000       0.00000000       0.00000000       0.00000000       0.94184905
K        0.00000000       0.00000000       5.52323232       0.00000000       0.00000000      -0.94184905
2
Properties=species:S:1:pos:R:3:forces:R:3 energy=-0.8733832197341919 pbc="F F F"
K        0.00000000       0.00000000       0.00000000       0.00000000       0.00000000       0.94054437
K        0.00000000       0.00000000       5.58282828       0.00000000       0.00000000      -0.94054437
2
Properties=species:S:1:pos:R:3:forces:R:3 energy=-0.8205745651691546 pbc="F F F"
K        0.00000000       0.00000000       0.00000000       0.00000000       0.00000000       0.82911271
K        0.00000000       0.00000000       5.64242424       0.00000000       0.00000000      -0.82911271
2
Properties=species:S:1:pos:R:3:forces:R:3 energy=-0.7721382809056537 pbc="F F F"
K        0.00000000       0.00000000       0.00000000       0.00000000       0.00000000       0.83772141
K        0.00000000       0.00000000       5.70202020       0.00000000       0.00000000      -0.83772141
2
Properties=species:S:1:pos:R:3:forces:R:3 energy=-0.7152464146196543 pbc="F F F"
K        0.00000000       0.00000000       0.00000000       0.00000000       0.00000000       1.09945655
K        0.00000000       0.00000000       5.76161616       0.00000000       0.00000000      -1.09945655
2
Properties=species:S:1:pos:R:3:forces:R:3 energy=-0.6441351043389278 pbc="F F F"
K        0.00000000       0.00000000       0.00000000       0.00000000       0.00000000       1.20893216
K        0.00000000       0.00000000       5.82121212       0.00000000       0.00000000      -1.20893216
2
Properties=species:S:1:pos:R:3:forces:R:3 energy=-0.5818596680404271 pbc="F F F"
K        0.00000000       0.00000000       0.00000000       0.00000000       0.00000000       0.81989497
K        0.00000000       0.00000000       5.88080808       0.00000000       0.00000000      -0.81989497
2
Properties=species:S:1:pos:R:3:forces:R:3 energy=-0.5490256014481228 pbc="F F F"
K        0.00000000       0.00000000       0.00000000       0.00000000       0.00000000       0.29154855
K        0.00000000       0.00000000       5.94040404       0.00000000       0.00000000      -0.29154855
2
Properties=species:S:1:pos:R:3:forces:R:3 energy=-0.5406347146628909 pbc="F F F"
K        0.00000000       0.00000000       0.00000000       0.00000000       0.00000000       0.06572454
K        0.00000000       0.00000000       6.00000000       0.00000000       0.00000000      -0.06572454
