2
Properties=species:S:1:pos:R:3:forces:R:3 energy=944504.4172658812 pbc="F F F"
La       0.00000000       0.00000000       0.00000000       0.00000000       0.00000000 -1278773.25000000
La       0.00000000       0.00000000       0.10000000       0.00000000       0.00000000 1278773.25000000
2
Properties=species:S:1:pos:R:3:forces:R:3 energy=906122.1047658812 pbc="F F F"
La       0.00000000       0.00000000       0.00000000       0.00000000       0.00000000 -315376.93750000
La       0.00000000       0.00000000       0.15959596       0.00000000       0.00000000  315376.93750000
2
Properties=species:S:1:pos:R:3:forces:R:3 energy=891821.7297658812 pbc="F F F"
La       0.00000000       0.00000000       0.00000000       0.00000000       0.00000000 -220117.71875000
La       0.00000000       0.00000000       0.21919192       0.00000000       0.00000000  220117.71875000
2
Properties=species:S:1:pos:R:3:forces:R:3 energy=875641.1672658812 pbc="F F F"
La       0.00000000       0.00000000       0.00000000       0.00000000       0.00000000 -349911.56250000
La       0.00000000       0.00000000       0.27878788       0.00000000       0.00000000  349911.56250000
2
Properties=species:S:1:pos:R:3:forces:R:3 energy=847093.6047658812 pbc="F F F"
La       0.00000000       0.00000000       0.00000000       0.00000000       0.00000000 -632293.25000000
La       0.00000000       0.00000000       0.33838384       0.00000000       0.00000000  632293.25000000
2
Properties=species:S:1:pos:R:3:forces:R:3 energy=797470.1047658876 pbc="F F F"
La       0.00000000       0.00000000       0.00000000       0.00000000       0.00000000 -1054557.37500000
La       0.00000000       0.00000000       0.39797980       0.00000000       0.00000000 1054557.37500000
2
Properties=species:S:1:pos:R:3:forces:R:3 energy=719316.9797658876 pbc="F F F"
La       0.00000000       0.00000000       0.00000000       0.00000000       0.00000000 -1579455.50000000
La       0.00000000       0.00000000       0.45757576       0.00000000       0.00000000 1579455.50000000
2
Properties=species:S:1:pos:R:3:forces:R:3 energy=609040.5422658939 pbc="F F F"
La       0.00000000       0.00000000       0.00000000       0.00000000       0.00000000 -2111168.25000000
La       0.00000000       0.00000000       0.51717172       0.00000000       0.00000000 2111168.25000000
2
Properties=species:S:1:pos:R:3:forces:R:3 energy=470716.9485159066 pbc="F F F"
La       0.00000000       0.00000000       0.00000000       0.00000000       0.00000000 -2489166.75000000
La       0.00000000       0.00000000       0.57676768       0.00000000       0.00000000 2489166.75000000
2
Properties=species:S:1:pos:R:3:forces:R:3 energy=325401.1360159256 pbc="F F F"
La       0.00000000       0.00000000       0.00000000       0.00000000       0.00000000 -2383447.50000000
La       0.00000000       0.00000000       0.63636364       0.00000000       0.00000000 2383447.50000000
2
Properties=species:S:1:pos:R:3:forces:R:3 energy=190918.07351596362 pbc="F F F"
La       0.00000000       0.00000000       0.00000000       0.00000000       0.00000000 -2074659.12500000
La       0.00000000       0.00000000       0.69595960       0.00000000       0.00000000 2074659.12500000
2
Properties=species:S:1:pos:R:3:forces:R:3 energy=86003.13601601431 pbc="F F F"
La       0.00000000       0.00000000       0.00000000       0.00000000       0.00000000 -1409195.50000000
La       0.00000000       0.00000000       0.75555556       0.00000000       0.00000000 1409195.50000000
2
Properties=species:S:1:pos:R:3:forces:R:3 energy=24299.44070357766 pbc="F F F"
La       0.00000000       0.00000000       0.00000000       0.00000000       0.00000000 -677539.87500000
La       0.00000000       0.00000000       0.81515152       0.00000000       0.00000000  677539.87500000
2
Properties=species:S:1:pos:R:3:forces:R:3 energy=642.6009209768588 pbc="F F F"
La       0.00000000       0.00000000       0.00000000       0.00000000       0.00000000 -170114.93750000
La       0.00000000       0.00000000       0.87474747       0.00000000       0.00000000  170114.93750000
2
Properties=species:S:1:pos:R:3:forces:R:3 energy=-2503.196259046867 pbc="F F F"
La       0.00000000       0.00000000       0.00000000       0.00000000       0.00000000   17695.00390625
La       0.00000000       0.00000000       0.93434343       0.00000000       0.00000000  -17695.00390625
2
Properties=species:S:1:pos:R:3:forces:R:3 energy=-587.1181948666114 pbc="F F F"
La       0.00000000       0.00000000       0.00000000       0.00000000       0.00000000   26809.33007812
La       0.00000000       0.00000000       0.99393939       0.00000000       0.00000000  -26809.33007812
2
Properties=species:S:1:pos:R:3:forces:R:3 energy=72.95758818803591 pbc="F F F"
La       0.00000000       0.00000000       0.00000000       0.00000000       0.00000000    2354.27294922
La       0.00000000       0.00000000       1.05353535       0.00000000       0.00000000   -2354.27294922
2
Properties=species:S:1:pos:R:3:forces:R:3 energy=95.80860938116285 pbc="F F F"
La       0.00000000       0.00000000       0.00000000       0.00000000       0.00000000     -38.53761292
La       0.00000000       0.00000000       1.11313131       0.00000000       0.00000000      38.53761292
2
Properties=species:S:1:pos:R:3:forces:R:3 energy=92.74734584359283 pbc="F F F"
La       0.00000000       0.00000000       0.00000000       0.00000000       0.00000000     -47.18035889
La       0.00000000       0.00000000       1.17272727       0.00000000       0.00000000      47.18035889
2
Properties=species:S:1:pos:R:3:forces:R:3 energy=87.57810363727747 pbc="F F F"
La       0.00000000       0.00000000       0.00000000       0.00000000       0.00000000    -124.13286591
La       0.00000000       0.00000000       1.23232323       0.00000000       0.00000000     124.13286591
2
Properties=species:S:1:pos:R:3:forces:R:3 energy=79.1420159115708 pbc="F F F"
La       0.00000000       0.00000000       0.00000000       0.00000000       0.00000000    -154.68841553
La       0.00000000       0.00000000       1.29191919       0.00000000       0.00000000     154.68841553
2
Properties=species:S:1:pos:R:3:forces:R:3 energy=69.60084876306841 pbc="F F F"
La       0.00000000       0.00000000       0.00000000       0.00000000       0.00000000    -164.16848755
La       0.00000000       0.00000000       1.35151515       0.00000000       0.00000000     164.16848755
2
Properties=species:S:1:pos:R:3:forces:R:3 energy=59.61866091508691 pbc="F F F"
La       0.00000000       0.00000000       0.00000000       0.00000000       0.00000000    -170.02102661
La       0.00000000       0.00000000       1.41111111       0.00000000       0.00000000     170.02102661
2
Properties=species:S:1:pos:R:3:forces:R:3 energy=49.538943031568685 pbc="F F F"
La       0.00000000       0.00000000       0.00000000       0.00000000       0.00000000    -166.10412598
La       0.00000000       0.00000000       1.47070707       0.00000000       0.00000000     166.10412598
2
Properties=species:S:1:pos:R:3:forces:R:3 energy=40.03657615731549 pbc="F F F"
La       0.00000000       0.00000000       0.00000000       0.00000000       0.00000000    -151.54103088
La       0.00000000       0.00000000       1.53030303       0.00000000       0.00000000     151.54103088
2
Properties=species:S:1:pos:R:3:forces:R:3 energy=31.561334150471545 pbc="F F F"
La       0.00000000       0.00000000       0.00000000       0.00000000       0.00000000    -132.57815552
La       0.00000000       0.00000000       1.58989899       0.00000000       0.00000000     132.57815552
2
Properties=species:S:1:pos:R:3:forces:R:3 energy=24.24264977795854 pbc="F F F"
La       0.00000000       0.00000000       0.00000000       0.00000000       0.00000000    -113.10752106
La       0.00000000       0.00000000       1.64949495       0.00000000       0.00000000     113.10752106
2
Properties=species:S:1:pos:R:3:forces:R:3 energy=18.064455623592682 pbc="F F F"
La       0.00000000       0.00000000       0.00000000       0.00000000       0.00000000     -94.37707520
La       0.00000000       0.00000000       1.70909091       0.00000000       0.00000000      94.37707520
2
Properties=species:S:1:pos:R:3:forces:R:3 energy=12.973077103539586 pbc="F F F"
La       0.00000000       0.00000000       0.00000000       0.00000000       0.00000000     -76.71332550
La       0.00000000       0.00000000       1.76868687       0.00000000       0.00000000      76.71332550
2
Properties=species:S:1:pos:R:3:forces:R:3 energy=8.882528188115073 pbc="F F F"
La       0.00000000       0.00000000       0.00000000       0.00000000       0.00000000     -60.98216248
La       0.00000000       0.00000000       1.82828283       0.00000000       0.00000000      60.98216248
2
Properties=species:S:1:pos:R:3:forces:R:3 energy=5.647748973301799 pbc="F F F"
La       0.00000000       0.00000000       0.00000000       0.00000000       0.00000000     -48.06592941
La       0.00000000       0.00000000       1.88787879       0.00000000       0.00000000      48.06592941
2
Properties=species:S:1:pos:R:3:forces:R:3 energy=3.098917150367072 pbc="F F F"
La       0.00000000       0.00000000       0.00000000       0.00000000       0.00000000     -37.88092041
La       0.00000000       0.00000000       1.94747475       0.00000000       0.00000000      37.88092041
2
Properties=species:S:1:pos:R:3:forces:R:3 energy=1.0901273830120564 pbc="F F F"
La       0.00000000       0.00000000       0.00000000       0.00000000       0.00000000     -29.83976555
La       0.00000000       0.00000000       2.00707071       0.00000000       0.00000000      29.83976555
2
Properties=species:S:1:pos:R:3:forces:R:3 energy=-0.489408530964189 pbc="F F F"
La       0.00000000       0.00000000       0.00000000       0.00000000       0.00000000     -23.39753723
La       0.00000000       0.00000000       2.06666667       0.00000000       0.00000000      23.39753723
2
Properties=species:S:1:pos:R:3:forces:R:3 energy=-1.7225950510235177 pbc="F F F"
La       0.00000000       0.00000000       0.00000000       0.00000000       0.00000000     -18.16374588
La       0.00000000       0.00000000       2.12626263       0.00000000       0.00000000      18.16374588
2
Properties=species:S:1:pos:R:3:forces:R:3 energy=-2.673004684385027 pbc="F F F"
La       0.00000000       0.00000000       0.00000000       0.00000000       0.00000000     -13.86911106
La       0.00000000       0.00000000       2.18585859       0.00000000       0.00000000      13.86911106
2
Properties=species:S:1:pos:R:3:forces:R:3 energy=-3.390082842172838 pbc="F F F"
La       0.00000000       0.00000000       0.00000000       0.00000000       0.00000000     -10.30098534
La       0.00000000       0.00000000       2.24545455       0.00000000       0.00000000      10.30098534
2
Properties=species:S:1:pos:R:3:forces:R:3 energy=-3.911960193544898 pbc="F F F"
La       0.00000000       0.00000000       0.00000000       0.00000000       0.00000000      -7.29762411
La       0.00000000       0.00000000       2.30505051       0.00000000       0.00000000       7.29762411
2
Properties=species:S:1:pos:R:3:forces:R:3 energy=-4.269465771317985 pbc="F F F"
La       0.00000000       0.00000000       0.00000000       0.00000000       0.00000000      -4.77819586
La       0.00000000       0.00000000       2.36464646       0.00000000       0.00000000       4.77819586
2
Properties=species:S:1:pos:R:3:forces:R:3 energy=-4.490863523836861 pbc="F F F"
La       0.00000000       0.00000000       0.00000000       0.00000000       0.00000000      -2.73164940
La       0.00000000       0.00000000       2.42424242       0.00000000       0.00000000       2.73164940
2
Properties=species:S:1:pos:R:3:forces:R:3 energy=-4.60467743408862 pbc="F F F"
La       0.00000000       0.00000000       0.00000000       0.00000000       0.00000000      -1.16836989
La       0.00000000       0.00000000       2.48383838       0.00000000       0.00000000       1.16836989
2
Properties=species:S:1:pos:R:3:forces:R:3 energy=-4.639411810359883 pbc="F F F"
La       0.00000000       0.00000000       0.00000000       0.00000000       0.00000000      -0.07070837
La       0.00000000       0.00000000       2.54343434       0.00000000       0.00000000       0.07070837
2
Properties=species:S:1:pos:R:3:forces:R:3 energy=-4.620950816780681 pbc="F F F"
La       0.00000000       0.00000000       0.00000000       0.00000000       0.00000000       0.63355416
La       0.00000000       0.00000000       2.60303030       0.00000000       0.00000000      -0.63355416
2
Properties=species:S:1:pos:R:3:forces:R:3 energy=-4.569443237485272 pbc="F F F"
La       0.00000000       0.00000000       0.00000000       0.00000000       0.00000000       1.05872667
La       0.00000000       0.00000000       2.66262626       0.00000000       0.00000000      -1.05872667
2
Properties=species:S:1:pos:R:3:forces:R:3 energy=-4.498007120793403 pbc="F F F"
La       0.00000000       0.00000000       0.00000000       0.00000000       0.00000000       1.31901729
La       0.00000000       0.00000000       2.72222222       0.00000000       0.00000000      -1.31901729
2
Properties=species:S:1:pos:R:3:forces:R:3 energy=-4.413914907953941 pbc="F F F"
La       0.00000000       0.00000000       0.00000000       0.00000000       0.00000000       1.49282026
La       0.00000000       0.00000000       2.78181818       0.00000000       0.00000000      -1.49282026
2
Properties=species:S:1:pos:R:3:forces:R:3 energy=-4.321037438992563 pbc="F F F"
La       0.00000000       0.00000000       0.00000000       0.00000000       0.00000000       1.61723697
La       0.00000000       0.00000000       2.84141414       0.00000000       0.00000000      -1.61723697
2
Properties=species:S:1:pos:R:3:forces:R:3 energy=-4.221899857462195 pbc="F F F"
La       0.00000000       0.00000000       0.00000000       0.00000000       0.00000000       1.70379639
La       0.00000000       0.00000000       2.90101010       0.00000000       0.00000000      -1.70379639
2
Properties=species:S:1:pos:R:3:forces:R:3 energy=-4.118648251069674 pbc="F F F"
La       0.00000000       0.00000000       0.00000000       0.00000000       0.00000000       1.75584257
La       0.00000000       0.00000000       2.96060606       0.00000000       0.00000000      -1.75584257
2
Properties=species:S:1:pos:R:3:forces:R:3 energy=-4.013215293903594 pbc="F F F"
La       0.00000000       0.00000000       0.00000000       0.00000000       0.00000000       1.77790916
La       0.00000000       0.00000000       3.02020202       0.00000000       0.00000000      -1.77790916
2
Properties=species:S:1:pos:R:3:forces:R:3 energy=-3.9071838406729698 pbc="F F F"
La       0.00000000       0.00000000       0.00000000       0.00000000       0.00000000       1.77737355
La       0.00000000       0.00000000       3.07979798       0.00000000       0.00000000      -1.77737355
2
Properties=species:S:1:pos:R:3:forces:R:3 energy=-3.8016557724902973 pbc="F F F"
La       0.00000000       0.00000000       0.00000000       0.00000000       0.00000000       1.76225352
La       0.00000000       0.00000000       3.13939394       0.00000000       0.00000000      -1.76225352
2
Properties=species:S:1:pos:R:3:forces:R:3 energy=-3.6973052692650357 pbc="F F F"
La       0.00000000       0.00000000       0.00000000       0.00000000       0.00000000       1.73860860
La       0.00000000       0.00000000       3.19898990       0.00000000       0.00000000      -1.73860860
2
Properties=species:S:1:pos:R:3:forces:R:3 energy=-3.5945350962663687 pbc="F F F"
La       0.00000000       0.00000000       0.00000000       0.00000000       0.00000000       1.70946801
La       0.00000000       0.00000000       3.25858586       0.00000000       0.00000000      -1.70946801
2
Properties=species:S:1:pos:R:3:forces:R:3 energy=-3.4936482411820142 pbc="F F F"
La       0.00000000       0.00000000       0.00000000       0.00000000       0.00000000       1.67538655
La       0.00000000       0.00000000       3.31818182       0.00000000       0.00000000      -1.67538655
2
Properties=species:S:1:pos:R:3:forces:R:3 energy=-3.3949501967130993 pbc="F F F"
La       0.00000000       0.00000000       0.00000000       0.00000000       0.00000000       1.63593006
La       0.00000000       0.00000000       3.37777778       0.00000000       0.00000000      -1.63593006
2
Properties=species:S:1:pos:R:3:forces:R:3 energy=-3.2987680610995667 pbc="F F F"
La       0.00000000       0.00000000       0.00000000       0.00000000       0.00000000       1.59096825
La       0.00000000       0.00000000       3.43737374       0.00000000       0.00000000      -1.59096825
2
Properties=species:S:1:pos:R:3:forces:R:3 energy=-3.2054151351535682 pbc="F F F"
La       0.00000000       0.00000000       0.00000000       0.00000000       0.00000000       1.54122174
La       0.00000000       0.00000000       3.49696970       0.00000000       0.00000000      -1.54122174
2
Properties=species:S:1:pos:R:3:forces:R:3 energy=-3.1151360489641733 pbc="F F F"
La       0.00000000       0.00000000       0.00000000       0.00000000       0.00000000       1.48801446
La       0.00000000       0.00000000       3.55656566       0.00000000       0.00000000      -1.48801446
2
Properties=species:S:1:pos:R:3:forces:R:3 energy=-3.028091677752737 pbc="F F F"
La       0.00000000       0.00000000       0.00000000       0.00000000       0.00000000       1.43297029
La       0.00000000       0.00000000       3.61616162       0.00000000       0.00000000      -1.43297029
2
Properties=species:S:1:pos:R:3:forces:R:3 energy=-2.9443371747519844 pbc="F F F"
La       0.00000000       0.00000000       0.00000000       0.00000000       0.00000000       1.37800336
La       0.00000000       0.00000000       3.67575758       0.00000000       0.00000000      -1.37800336
2
Properties=species:S:1:pos:R:3:forces:R:3 energy=-2.863788670732904 pbc="F F F"
La       0.00000000       0.00000000       0.00000000       0.00000000       0.00000000       1.32589746
La       0.00000000       0.00000000       3.73535354       0.00000000       0.00000000      -1.32589746
2
Properties=species:S:1:pos:R:3:forces:R:3 energy=-2.786165219751673 pbc="F F F"
La       0.00000000       0.00000000       0.00000000       0.00000000       0.00000000       1.28062093
La       0.00000000       0.00000000       3.79494949       0.00000000       0.00000000      -1.28062093
2
Properties=species:S:1:pos:R:3:forces:R:3 energy=-2.7109378433501075 pbc="F F F"
La       0.00000000       0.00000000       0.00000000       0.00000000       0.00000000       1.24586439
La       0.00000000       0.00000000       3.85454545       0.00000000       0.00000000      -1.24586439
2
Properties=species:S:1:pos:R:3:forces:R:3 energy=-2.6374568354357955 pbc="F F F"
La       0.00000000       0.00000000       0.00000000       0.00000000       0.00000000       1.22153866
La       0.00000000       0.00000000       3.91414141       0.00000000       0.00000000      -1.22153866
2
Properties=species:S:1:pos:R:3:forces:R:3 energy=-2.5652468660689873 pbc="F F F"
La       0.00000000       0.00000000       0.00000000       0.00000000       0.00000000       1.20182896
La       0.00000000       0.00000000       3.97373737       0.00000000       0.00000000      -1.20182896
2
Properties=species:S:1:pos:R:3:forces:R:3 energy=-2.4942753072019923 pbc="F F F"
La       0.00000000       0.00000000       0.00000000       0.00000000       0.00000000       1.17885530
La       0.00000000       0.00000000       4.03333333       0.00000000       0.00000000      -1.17885530
2
Properties=species:S:1:pos:R:3:forces:R:3 energy=-2.424890134446155 pbc="F F F"
La       0.00000000       0.00000000       0.00000000       0.00000000       0.00000000       1.14835060
La       0.00000000       0.00000000       4.09292929       0.00000000       0.00000000      -1.14835060
2
Properties=species:S:1:pos:R:3:forces:R:3 energy=-2.3575370682068435 pbc="F F F"
La       0.00000000       0.00000000       0.00000000       0.00000000       0.00000000       1.11109436
La       0.00000000       0.00000000       4.15252525       0.00000000       0.00000000      -1.11109436
2
Properties=species:S:1:pos:R:3:forces:R:3 energy=-2.292524329710247 pbc="F F F"
La       0.00000000       0.00000000       0.00000000       0.00000000       0.00000000       1.07046103
La       0.00000000       0.00000000       4.21212121       0.00000000       0.00000000      -1.07046103
2
Properties=species:S:1:pos:R:3:forces:R:3 energy=-2.229944881690068 pbc="F F F"
La       0.00000000       0.00000000       0.00000000       0.00000000       0.00000000       1.02985573
La       0.00000000       0.00000000       4.27171717       0.00000000       0.00000000      -1.02985573
2
Properties=species:S:1:pos:R:3:forces:R:3 energy=-2.1697253736992983 pbc="F F F"
La       0.00000000       0.00000000       0.00000000       0.00000000       0.00000000       0.99164051
La       0.00000000       0.00000000       4.33131313       0.00000000       0.00000000      -0.99164051
2
Properties=species:S:1:pos:R:3:forces:R:3 energy=-2.11167782787868 pbc="F F F"
La       0.00000000       0.00000000       0.00000000       0.00000000       0.00000000       0.95704705
La       0.00000000       0.00000000       4.39090909       0.00000000       0.00000000      -0.95704705
2
Properties=species:S:1:pos:R:3:forces:R:3 energy=-2.0555721741100945 pbc="F F F"
La       0.00000000       0.00000000       0.00000000       0.00000000       0.00000000       0.92645150
La       0.00000000       0.00000000       4.45050505       0.00000000       0.00000000      -0.92645150
2
Properties=species:S:1:pos:R:3:forces:R:3 energy=-2.001178218472505 pbc="F F F"
La       0.00000000       0.00000000       0.00000000       0.00000000       0.00000000       0.89958650
La       0.00000000       0.00000000       4.51010101       0.00000000       0.00000000      -0.89958650
2
Properties=species:S:1:pos:R:3:forces:R:3 energy=-1.9482889436274637 pbc="F F F"
La       0.00000000       0.00000000       0.00000000       0.00000000       0.00000000       0.87571430
La       0.00000000       0.00000000       4.56969697       0.00000000       0.00000000      -0.87571430
2
Properties=species:S:1:pos:R:3:forces:R:3 energy=-1.8967615495173777 pbc="F F F"
La       0.00000000       0.00000000       0.00000000       0.00000000       0.00000000       0.85373288
La       0.00000000       0.00000000       4.62929293       0.00000000       0.00000000      -0.85373288
2
Properties=species:S:1:pos:R:3:forces:R:3 energy=-1.8465198567344159 pbc="F F F"
La       0.00000000       0.00000000       0.00000000       0.00000000       0.00000000       0.83238137
La       0.00000000       0.00000000       4.68888889       0.00000000       0.00000000      -0.83238137
2
Properties=species:S:1:pos:R:3:forces:R:3 energy=-1.7975594625343447 pbc="F F F"
La       0.00000000       0.00000000       0.00000000       0.00000000       0.00000000       0.81048065
La       0.00000000       0.00000000       4.74848485       0.00000000       0.00000000      -0.81048065
2
Properties=species:S:1:pos:R:3:forces:R:3 energy=-1.7499417827079562 pbc="F F F"
La       0.00000000       0.00000000       0.00000000       0.00000000       0.00000000       0.78736603
La       0.00000000       0.00000000       4.80808081       0.00000000       0.00000000      -0.78736603
2
Properties=species:S:1:pos:R:3:forces:R:3 energy=-1.7037300005146163 pbc="F F F"
La       0.00000000       0.00000000       0.00000000       0.00000000       0.00000000       0.76337528
La       0.00000000       0.00000000       4.86767677       0.00000000       0.00000000      -0.76337528
2
Properties=species:S:1:pos:R:3:forces:R:3 energy=-1.6589342177377837 pbc="F F F"
La       0.00000000       0.00000000       0.00000000       0.00000000       0.00000000       0.74030346
La       0.00000000       0.00000000       4.92727273       0.00000000       0.00000000      -0.74030346
2
Properties=species:S:1:pos:R:3:forces:R:3 energy=-1.6154077932882542 pbc="F F F"
La       0.00000000       0.00000000       0.00000000       0.00000000       0.00000000       0.72147202
La       0.00000000       0.00000000       4.98686869       0.00000000       0.00000000      -0.72147202
2
Properties=species:S:1:pos:R:3:forces:R:3 energy=-1.5727767471301224 pbc="F F F"
La       0.00000000       0.00000000       0.00000000       0.00000000       0.00000000       0.71112502
La       0.00000000       0.00000000       5.04646465       0.00000000       0.00000000      -0.71112502
2
Properties=species:S:1:pos:R:3:forces:R:3 energy=-1.5304099631260857 pbc="F F F"
La       0.00000000       0.00000000       0.00000000       0.00000000       0.00000000       0.71279299
La       0.00000000       0.00000000       5.10606061       0.00000000       0.00000000      -0.71279299
2
Properties=species:S:1:pos:R:3:forces:R:3 energy=-1.4875690742962278 pbc="F F F"
La       0.00000000       0.00000000       0.00000000       0.00000000       0.00000000       0.72635001
La       0.00000000       0.00000000       5.16565657       0.00000000       0.00000000      -0.72635001
2
Properties=species:S:1:pos:R:3:forces:R:3 energy=-1.4437379129448265 pbc="F F F"
La       0.00000000       0.00000000       0.00000000       0.00000000       0.00000000       0.74425274
La       0.00000000       0.00000000       5.22525253       0.00000000       0.00000000      -0.74425274
2
Properties=species:S:1:pos:R:3:forces:R:3 energy=-1.3991172597222596 pbc="F F F"
La       0.00000000       0.00000000       0.00000000       0.00000000       0.00000000       0.74928200
La       0.00000000       0.00000000       5.28484848       0.00000000       0.00000000      -0.74928200
2
Properties=species:S:1:pos:R:3:forces:R:3 energy=-1.3550654665017612 pbc="F F F"
La       0.00000000       0.00000000       0.00000000       0.00000000       0.00000000       0.72332460
La       0.00000000       0.00000000       5.34444444       0.00000000       0.00000000      -0.72332460
2
Properties=species:S:1:pos:R:3:forces:R:3 energy=-1.31327495227156 pbc="F F F"
La       0.00000000       0.00000000       0.00000000       0.00000000       0.00000000       0.68069685
La       0.00000000       0.00000000       5.40404040       0.00000000       0.00000000      -0.68069685
2
Properties=species:S:1:pos:R:3:forces:R:3 energy=-1.2730289958096528 pbc="F F F"
La       0.00000000       0.00000000       0.00000000       0.00000000       0.00000000       0.68062252
La       0.00000000       0.00000000       5.46363636       0.00000000       0.00000000      -0.68062252
2
Properties=species:S:1:pos:R:3:forces:R:3 energy=-1.2313985058713397 pbc="F F F"
La       0.00000000       0.00000000       0.00000000       0.00000000       0.00000000       0.71429116
La       0.00000000       0.00000000       5.52323232       0.00000000       0.00000000      -0.71429116
2
Properties=species:S:1:pos:R:3:forces:R:3 energy=-1.189292833636956 pbc="F F F"
La       0.00000000       0.00000000       0.00000000       0.00000000       0.00000000       0.68348461
La       0.00000000       0.00000000       5.58282828       0.00000000       0.00000000      -0.68348461
2
Properties=species:S:1:pos:R:3:forces:R:3 energy=-1.151122546302761 pbc="F F F"
La       0.00000000       0.00000000       0.00000000       0.00000000       0.00000000       0.59646952
La       0.00000000       0.00000000       5.64242424       0.00000000       0.00000000      -0.59646952
2
Properties=species:S:1:pos:R:3:forces:R:3 energy=-1.1169177361757976 pbc="F F F"
La       0.00000000       0.00000000       0.00000000       0.00000000       0.00000000       0.57265115
La       0.00000000       0.00000000       5.70202020       0.00000000       0.00000000      -0.57265115
2
Properties=species:S:1:pos:R:3:forces:R:3 energy=-1.0800286105267254 pbc="F F F"
La       0.00000000       0.00000000       0.00000000       0.00000000       0.00000000       0.68017411
La       0.00000000       0.00000000       5.76161616       0.00000000       0.00000000      -0.68017411
2
Properties=species:S:1:pos:R:3:forces:R:3 energy=-1.03740354288865 pbc="F F F"
La       0.00000000       0.00000000       0.00000000       0.00000000       0.00000000       0.70935255
La       0.00000000       0.00000000       5.82121212       0.00000000       0.00000000      -0.70935255
2
Properties=species:S:1:pos:R:3:forces:R:3 energy=-1.0011219872780481 pbc="F F F"
La       0.00000000       0.00000000       0.00000000       0.00000000       0.00000000       0.47551090
La       0.00000000       0.00000000       5.88080808       0.00000000       0.00000000      -0.47551090
2
Properties=species:S:1:pos:R:3:forces:R:3 energy=-0.9820819196103502 pbc="F F F"
La       0.00000000       0.00000000       0.00000000       0.00000000       0.00000000       0.16929537
La       0.00000000       0.00000000       5.94040404       0.00000000       0.00000000      -0.16929537
2
Properties=species:S:1:pos:R:3:forces:R:3 energy=-0.9771897102310176 pbc="F F F"
La       0.00000000       0.00000000       0.00000000       0.00000000       0.00000000       0.03887901
La       0.00000000       0.00000000       6.00000000       0.00000000       0.00000000      -0.03887901
