2
Properties=species:S:1:pos:R:3:forces:R:3 energy=73598.3880380332 pbc="F F F"
Lu       0.00000000       0.00000000       0.00000000       0.00000000       0.00000000 -1833064.37500000
Lu       0.00000000       0.00000000       0.10000000       0.00000000       0.00000000 1833064.37500000
2
Properties=species:S:1:pos:R:3:forces:R:3 energy=20840.399756783194 pbc="F F F"
Lu       0.00000000       0.00000000       0.00000000       0.00000000       0.00000000 -379623.34375000
Lu       0.00000000       0.00000000       0.15959596       0.00000000       0.00000000  379623.34375000
2
Properties=species:S:1:pos:R:3:forces:R:3 energy=7944.498877876943 pbc="F F F"
Lu       0.00000000       0.00000000       0.00000000       0.00000000       0.00000000 -114461.89843750
Lu       0.00000000       0.00000000       0.21919192       0.00000000       0.00000000  114461.89843750
2
Properties=species:S:1:pos:R:3:forces:R:3 energy=3677.8299325644434 pbc="F F F"
Lu       0.00000000       0.00000000       0.00000000       0.00000000       0.00000000  -42329.03125000
Lu       0.00000000       0.00000000       0.27878788       0.00000000       0.00000000   42329.03125000
2
Properties=species:S:1:pos:R:3:forces:R:3 energy=2004.562598586404 pbc="F F F"
Lu       0.00000000       0.00000000       0.00000000       0.00000000       0.00000000  -17840.19531250
Lu       0.00000000       0.00000000       0.33838384       0.00000000       0.00000000   17840.19531250
2
Properties=species:S:1:pos:R:3:forces:R:3 energy=1263.3476327660915 pbc="F F F"
Lu       0.00000000       0.00000000       0.00000000       0.00000000       0.00000000   -8450.33789062
Lu       0.00000000       0.00000000       0.39797980       0.00000000       0.00000000    8450.33789062
2
Properties=species:S:1:pos:R:3:forces:R:3 energy=890.0806649989896 pbc="F F F"
Lu       0.00000000       0.00000000       0.00000000       0.00000000       0.00000000   -4632.45117188
Lu       0.00000000       0.00000000       0.45757576       0.00000000       0.00000000    4632.45117188
2
Properties=species:S:1:pos:R:3:forces:R:3 energy=667.9638437289341 pbc="F F F"
Lu       0.00000000       0.00000000       0.00000000       0.00000000       0.00000000   -3044.81591797
Lu       0.00000000       0.00000000       0.51717172       0.00000000       0.00000000    3044.81591797
2
Properties=species:S:1:pos:R:3:forces:R:3 energy=497.708228513566 pbc="F F F"
Lu       0.00000000       0.00000000       0.00000000       0.00000000       0.00000000   -2752.12304688
Lu       0.00000000       0.00000000       0.57676768       0.00000000       0.00000000    2752.12304688
2
Properties=species:S:1:pos:R:3:forces:R:3 energy=349.1503672297905 pbc="F F F"
Lu       0.00000000       0.00000000       0.00000000       0.00000000       0.00000000   -2213.40161133
Lu       0.00000000       0.00000000       0.63636364       0.00000000       0.00000000    2213.40161133
2
Properties=species:S:1:pos:R:3:forces:R:3 energy=238.19130663053727 pbc="F F F"
Lu       0.00000000       0.00000000       0.00000000       0.00000000       0.00000000   -1519.54309082
Lu       0.00000000       0.00000000       0.69595960       0.00000000       0.00000000    1519.54309082
2
Properties=species:S:1:pos:R:3:forces:R:3 energy=165.17464414058696 pbc="F F F"
Lu       0.00000000       0.00000000       0.00000000       0.00000000       0.00000000    -977.34411621
Lu       0.00000000       0.00000000       0.75555556       0.00000000       0.00000000     977.34411621
2
Properties=species:S:1:pos:R:3:forces:R:3 energy=120.27268202504028 pbc="F F F"
Lu       0.00000000       0.00000000       0.00000000       0.00000000       0.00000000    -464.85147095
Lu       0.00000000       0.00000000       0.81515152       0.00000000       0.00000000     464.85147095
2
Properties=species:S:1:pos:R:3:forces:R:3 energy=99.59466559686147 pbc="F F F"
Lu       0.00000000       0.00000000       0.00000000       0.00000000       0.00000000    -258.90121460
Lu       0.00000000       0.00000000       0.87474747       0.00000000       0.00000000     258.90121460
2
Properties=species:S:1:pos:R:3:forces:R:3 energy=87.78897898196702 pbc="F F F"
Lu       0.00000000       0.00000000       0.00000000       0.00000000       0.00000000    -140.89993286
Lu       0.00000000       0.00000000       0.93434343       0.00000000       0.00000000     140.89993286
2
Properties=species:S:1:pos:R:3:forces:R:3 energy=82.60440912563341 pbc="F F F"
Lu       0.00000000       0.00000000       0.00000000       0.00000000       0.00000000     -36.08285522
Lu       0.00000000       0.00000000       0.99393939       0.00000000       0.00000000      36.08285522
2
Properties=species:S:1:pos:R:3:forces:R:3 energy=81.72001033246406 pbc="F F F"
Lu       0.00000000       0.00000000       0.00000000       0.00000000       0.00000000     -24.74683571
Lu       0.00000000       0.00000000       1.05353535       0.00000000       0.00000000      24.74683571
2
Properties=species:S:1:pos:R:3:forces:R:3 energy=72.8882469475777 pbc="F F F"
Lu       0.00000000       0.00000000       0.00000000       0.00000000       0.00000000    -207.39410400
Lu       0.00000000       0.00000000       1.11313131       0.00000000       0.00000000     207.39410400
2
Properties=species:S:1:pos:R:3:forces:R:3 energy=61.57822760320246 pbc="F F F"
Lu       0.00000000       0.00000000       0.00000000       0.00000000       0.00000000    -171.80978394
Lu       0.00000000       0.00000000       1.17272727       0.00000000       0.00000000     171.80978394
2
Properties=species:S:1:pos:R:3:forces:R:3 energy=52.13803584611725 pbc="F F F"
Lu       0.00000000       0.00000000       0.00000000       0.00000000       0.00000000    -148.30432129
Lu       0.00000000       0.00000000       1.23232323       0.00000000       0.00000000     148.30432129
2
Properties=species:S:1:pos:R:3:forces:R:3 energy=43.730513574567375 pbc="F F F"
Lu       0.00000000       0.00000000       0.00000000       0.00000000       0.00000000    -133.47396851
Lu       0.00000000       0.00000000       1.29191919       0.00000000       0.00000000     133.47396851
2
Properties=species:S:1:pos:R:3:forces:R:3 energy=36.34268325181163 pbc="F F F"
Lu       0.00000000       0.00000000       0.00000000       0.00000000       0.00000000    -113.74073029
Lu       0.00000000       0.00000000       1.35151515       0.00000000       0.00000000     113.74073029
2
Properties=species:S:1:pos:R:3:forces:R:3 energy=30.14944124479726 pbc="F F F"
Lu       0.00000000       0.00000000       0.00000000       0.00000000       0.00000000     -95.15676117
Lu       0.00000000       0.00000000       1.41111111       0.00000000       0.00000000      95.15676117
2
Properties=species:S:1:pos:R:3:forces:R:3 energy=24.857481316857864 pbc="F F F"
Lu       0.00000000       0.00000000       0.00000000       0.00000000       0.00000000     -83.24060822
Lu       0.00000000       0.00000000       1.47070707       0.00000000       0.00000000      83.24060822
2
Properties=species:S:1:pos:R:3:forces:R:3 energy=20.212725696000668 pbc="F F F"
Lu       0.00000000       0.00000000       0.00000000       0.00000000       0.00000000     -72.31310272
Lu       0.00000000       0.00000000       1.53030303       0.00000000       0.00000000      72.31310272
2
Properties=species:S:1:pos:R:3:forces:R:3 energy=16.266701557596555 pbc="F F F"
Lu       0.00000000       0.00000000       0.00000000       0.00000000       0.00000000     -60.18582535
Lu       0.00000000       0.00000000       1.58989899       0.00000000       0.00000000      60.18582535
2
Properties=species:S:1:pos:R:3:forces:R:3 energy=12.994434281388102 pbc="F F F"
Lu       0.00000000       0.00000000       0.00000000       0.00000000       0.00000000     -50.14828491
Lu       0.00000000       0.00000000       1.64949495       0.00000000       0.00000000      50.14828491
2
Properties=species:S:1:pos:R:3:forces:R:3 energy=10.237390013792487 pbc="F F F"
Lu       0.00000000       0.00000000       0.00000000       0.00000000       0.00000000     -42.65748215
Lu       0.00000000       0.00000000       1.70909091       0.00000000       0.00000000      42.65748215
2
Properties=species:S:1:pos:R:3:forces:R:3 energy=7.892722843598665 pbc="F F F"
Lu       0.00000000       0.00000000       0.00000000       0.00000000       0.00000000     -36.09446716
Lu       0.00000000       0.00000000       1.76868687       0.00000000       0.00000000      36.09446716
2
Properties=species:S:1:pos:R:3:forces:R:3 energy=5.927922768965856 pbc="F F F"
Lu       0.00000000       0.00000000       0.00000000       0.00000000       0.00000000     -29.92282104
Lu       0.00000000       0.00000000       1.82828283       0.00000000       0.00000000      29.92282104
2
Properties=species:S:1:pos:R:3:forces:R:3 energy=4.31389396744859 pbc="F F F"
Lu       0.00000000       0.00000000       0.00000000       0.00000000       0.00000000     -24.36096764
Lu       0.00000000       0.00000000       1.88787879       0.00000000       0.00000000      24.36096764
2
Properties=species:S:1:pos:R:3:forces:R:3 energy=3.010039800189627 pbc="F F F"
Lu       0.00000000       0.00000000       0.00000000       0.00000000       0.00000000     -19.51163864
Lu       0.00000000       0.00000000       1.94747475       0.00000000       0.00000000      19.51163864
2
Properties=species:S:1:pos:R:3:forces:R:3 energy=1.9749716778396853 pbc="F F F"
Lu       0.00000000       0.00000000       0.00000000       0.00000000       0.00000000     -15.33295536
Lu       0.00000000       0.00000000       2.00707071       0.00000000       0.00000000      15.33295536
2
Properties=species:S:1:pos:R:3:forces:R:3 energy=1.1693277071880679 pbc="F F F"
Lu       0.00000000       0.00000000       0.00000000       0.00000000       0.00000000     -11.81917763
Lu       0.00000000       0.00000000       2.06666667       0.00000000       0.00000000      11.81917763
2
Properties=species:S:1:pos:R:3:forces:R:3 energy=0.5516369949585005 pbc="F F F"
Lu       0.00000000       0.00000000       0.00000000       0.00000000       0.00000000      -9.03845501
Lu       0.00000000       0.00000000       2.12626263       0.00000000       0.00000000       9.03845501
2
Properties=species:S:1:pos:R:3:forces:R:3 energy=0.07666645338163978 pbc="F F F"
Lu       0.00000000       0.00000000       0.00000000       0.00000000       0.00000000      -7.02580833
Lu       0.00000000       0.00000000       2.18585859       0.00000000       0.00000000       7.02580833
2
Properties=species:S:1:pos:R:3:forces:R:3 energy=-0.2993337697771459 pbc="F F F"
Lu       0.00000000       0.00000000       0.00000000       0.00000000       0.00000000      -5.69201422
Lu       0.00000000       0.00000000       2.24545455       0.00000000       0.00000000       5.69201422
2
Properties=species:S:1:pos:R:3:forces:R:3 energy=-0.6116706569488339 pbc="F F F"
Lu       0.00000000       0.00000000       0.00000000       0.00000000       0.00000000      -4.85578203
Lu       0.00000000       0.00000000       2.30505051       0.00000000       0.00000000       4.85578203
2
Properties=species:S:1:pos:R:3:forces:R:3 energy=-0.884004366947559 pbc="F F F"
Lu       0.00000000       0.00000000       0.00000000       0.00000000       0.00000000      -4.31771755
Lu       0.00000000       0.00000000       2.36464646       0.00000000       0.00000000       4.31771755
2
Properties=species:S:1:pos:R:3:forces:R:3 energy=-1.1288541591954664 pbc="F F F"
Lu       0.00000000       0.00000000       0.00000000       0.00000000       0.00000000      -3.90989518
Lu       0.00000000       0.00000000       2.42424242       0.00000000       0.00000000       3.90989518
2
Properties=species:S:1:pos:R:3:forces:R:3 energy=-1.3504160301182315 pbc="F F F"
Lu       0.00000000       0.00000000       0.00000000       0.00000000       0.00000000      -3.52370071
Lu       0.00000000       0.00000000       2.48383838       0.00000000       0.00000000       3.52370071
2
Properties=species:S:1:pos:R:3:forces:R:3 energy=-1.5483695383857716 pbc="F F F"
Lu       0.00000000       0.00000000       0.00000000       0.00000000       0.00000000      -3.11476612
Lu       0.00000000       0.00000000       2.54343434       0.00000000       0.00000000       3.11476612
2
Properties=species:S:1:pos:R:3:forces:R:3 energy=-1.7212083840855719 pbc="F F F"
Lu       0.00000000       0.00000000       0.00000000       0.00000000       0.00000000      -2.68302512
Lu       0.00000000       0.00000000       2.60303030       0.00000000       0.00000000       2.68302512
2
Properties=species:S:1:pos:R:3:forces:R:3 energy=-1.8680515683780623 pbc="F F F"
Lu       0.00000000       0.00000000       0.00000000       0.00000000       0.00000000      -2.24544573
Lu       0.00000000       0.00000000       2.66262626       0.00000000       0.00000000       2.24544573
2
Properties=species:S:1:pos:R:3:forces:R:3 energy=-1.9890726368059712 pbc="F F F"
Lu       0.00000000       0.00000000       0.00000000       0.00000000       0.00000000      -1.81900120
Lu       0.00000000       0.00000000       2.72222222       0.00000000       0.00000000       1.81900120
2
Properties=species:S:1:pos:R:3:forces:R:3 energy=-2.0853165766573647 pbc="F F F"
Lu       0.00000000       0.00000000       0.00000000       0.00000000       0.00000000      -1.41537809
Lu       0.00000000       0.00000000       2.78181818       0.00000000       0.00000000       1.41537809
2
Properties=species:S:1:pos:R:3:forces:R:3 energy=-2.158364957575414 pbc="F F F"
Lu       0.00000000       0.00000000       0.00000000       0.00000000       0.00000000      -1.04136980
Lu       0.00000000       0.00000000       2.84141414       0.00000000       0.00000000       1.04136980
2
Properties=species:S:1:pos:R:3:forces:R:3 energy=-2.2100956556437463 pbc="F F F"
Lu       0.00000000       0.00000000       0.00000000       0.00000000       0.00000000      -0.70031655
Lu       0.00000000       0.00000000       2.90101010       0.00000000       0.00000000       0.70031655
2
Properties=species:S:1:pos:R:3:forces:R:3 energy=-2.2425158205010174 pbc="F F F"
Lu       0.00000000       0.00000000       0.00000000       0.00000000       0.00000000      -0.39340141
Lu       0.00000000       0.00000000       2.96060606       0.00000000       0.00000000       0.39340141
2
Properties=species:S:1:pos:R:3:forces:R:3 energy=-2.2576686576762217 pbc="F F F"
Lu       0.00000000       0.00000000       0.00000000       0.00000000       0.00000000      -0.12083817
Lu       0.00000000       0.00000000       3.02020202       0.00000000       0.00000000       0.12083817
2
Properties=species:S:1:pos:R:3:forces:R:3 energy=-2.2576031771076277 pbc="F F F"
Lu       0.00000000       0.00000000       0.00000000       0.00000000       0.00000000       0.11729667
Lu       0.00000000       0.00000000       3.07979798       0.00000000       0.00000000      -0.11729667
2
Properties=species:S:1:pos:R:3:forces:R:3 energy=-2.24437445856777 pbc="F F F"
Lu       0.00000000       0.00000000       0.00000000       0.00000000       0.00000000       0.32085934
Lu       0.00000000       0.00000000       3.13939394       0.00000000       0.00000000      -0.32085934
2
Properties=species:S:1:pos:R:3:forces:R:3 energy=-2.2200409070180025 pbc="F F F"
Lu       0.00000000       0.00000000       0.00000000       0.00000000       0.00000000       0.49010685
Lu       0.00000000       0.00000000       3.19898990       0.00000000       0.00000000      -0.49010685
2
Properties=species:S:1:pos:R:3:forces:R:3 energy=-2.1866132880533695 pbc="F F F"
Lu       0.00000000       0.00000000       0.00000000       0.00000000       0.00000000       0.62643707
Lu       0.00000000       0.00000000       3.25858586       0.00000000       0.00000000      -0.62643707
2
Properties=species:S:1:pos:R:3:forces:R:3 energy=-2.145970411752814 pbc="F F F"
Lu       0.00000000       0.00000000       0.00000000       0.00000000       0.00000000       0.73283654
Lu       0.00000000       0.00000000       3.31818182       0.00000000       0.00000000      -0.73283654
2
Properties=species:S:1:pos:R:3:forces:R:3 energy=-2.0997732559773565 pbc="F F F"
Lu       0.00000000       0.00000000       0.00000000       0.00000000       0.00000000       0.81367505
Lu       0.00000000       0.00000000       3.37777778       0.00000000       0.00000000      -0.81367505
2
Properties=species:S:1:pos:R:3:forces:R:3 energy=-2.049397127612791 pbc="F F F"
Lu       0.00000000       0.00000000       0.00000000       0.00000000       0.00000000       0.87387437
Lu       0.00000000       0.00000000       3.43737374       0.00000000       0.00000000      -0.87387437
2
Properties=species:S:1:pos:R:3:forces:R:3 energy=-1.9959345576067613 pbc="F F F"
Lu       0.00000000       0.00000000       0.00000000       0.00000000       0.00000000       0.91788888
Lu       0.00000000       0.00000000       3.49696970       0.00000000       0.00000000      -0.91788888
2
Properties=species:S:1:pos:R:3:forces:R:3 energy=-1.9402476176717283 pbc="F F F"
Lu       0.00000000       0.00000000       0.00000000       0.00000000       0.00000000       0.94895887
Lu       0.00000000       0.00000000       3.55656566       0.00000000       0.00000000      -0.94895887
2
Properties=species:S:1:pos:R:3:forces:R:3 energy=-1.8830471294422415 pbc="F F F"
Lu       0.00000000       0.00000000       0.00000000       0.00000000       0.00000000       0.96888560
Lu       0.00000000       0.00000000       3.61616162       0.00000000       0.00000000      -0.96888560
2
Properties=species:S:1:pos:R:3:forces:R:3 energy=-1.824972896326548 pbc="F F F"
Lu       0.00000000       0.00000000       0.00000000       0.00000000       0.00000000       0.97833115
Lu       0.00000000       0.00000000       3.67575758       0.00000000       0.00000000      -0.97833115
2
Properties=species:S:1:pos:R:3:forces:R:3 energy=-1.7666436913807317 pbc="F F F"
Lu       0.00000000       0.00000000       0.00000000       0.00000000       0.00000000       0.97743332
Lu       0.00000000       0.00000000       3.73535354       0.00000000       0.00000000      -0.97743332
2
Properties=species:S:1:pos:R:3:forces:R:3 energy=-1.7086707141191917 pbc="F F F"
Lu       0.00000000       0.00000000       0.00000000       0.00000000       0.00000000       0.96646106
Lu       0.00000000       0.00000000       3.79494949       0.00000000       0.00000000      -0.96646106
2
Properties=species:S:1:pos:R:3:forces:R:3 energy=-1.6516323078098731 pbc="F F F"
Lu       0.00000000       0.00000000       0.00000000       0.00000000       0.00000000       0.94627458
Lu       0.00000000       0.00000000       3.85454545       0.00000000       0.00000000      -0.94627458
2
Properties=species:S:1:pos:R:3:forces:R:3 energy=-1.5960346509189853 pbc="F F F"
Lu       0.00000000       0.00000000       0.00000000       0.00000000       0.00000000       0.91847718
Lu       0.00000000       0.00000000       3.91414141       0.00000000       0.00000000      -0.91847718
2
Properties=species:S:1:pos:R:3:forces:R:3 energy=-1.5422655482561651 pbc="F F F"
Lu       0.00000000       0.00000000       0.00000000       0.00000000       0.00000000       0.88524377
Lu       0.00000000       0.00000000       3.97373737       0.00000000       0.00000000      -0.88524377
2
Properties=species:S:1:pos:R:3:forces:R:3 energy=-1.490580258908262 pbc="F F F"
Lu       0.00000000       0.00000000       0.00000000       0.00000000       0.00000000       0.84900123
Lu       0.00000000       0.00000000       4.03333333       0.00000000       0.00000000      -0.84900123
2
Properties=species:S:1:pos:R:3:forces:R:3 energy=-1.441086054884543 pbc="F F F"
Lu       0.00000000       0.00000000       0.00000000       0.00000000       0.00000000       0.81201208
Lu       0.00000000       0.00000000       4.09292929       0.00000000       0.00000000      -0.81201208
2
Properties=species:S:1:pos:R:3:forces:R:3 energy=-1.3937724697659681 pbc="F F F"
Lu       0.00000000       0.00000000       0.00000000       0.00000000       0.00000000       0.77608883
Lu       0.00000000       0.00000000       4.15252525       0.00000000       0.00000000      -0.77608883
2
Properties=species:S:1:pos:R:3:forces:R:3 energy=-1.3485378391952039 pbc="F F F"
Lu       0.00000000       0.00000000       0.00000000       0.00000000       0.00000000       0.74243158
Lu       0.00000000       0.00000000       4.21212121       0.00000000       0.00000000      -0.74243158
2
Properties=species:S:1:pos:R:3:forces:R:3 energy=-1.3052240034511693 pbc="F F F"
Lu       0.00000000       0.00000000       0.00000000       0.00000000       0.00000000       0.71160299
Lu       0.00000000       0.00000000       4.27171717       0.00000000       0.00000000      -0.71160299
2
Properties=species:S:1:pos:R:3:forces:R:3 energy=-1.2636631947136967 pbc="F F F"
Lu       0.00000000       0.00000000       0.00000000       0.00000000       0.00000000       0.68362266
Lu       0.00000000       0.00000000       4.33131313       0.00000000       0.00000000      -0.68362266
2
Properties=species:S:1:pos:R:3:forces:R:3 energy=-1.2236931461330345 pbc="F F F"
Lu       0.00000000       0.00000000       0.00000000       0.00000000       0.00000000       0.65810776
Lu       0.00000000       0.00000000       4.39090909       0.00000000       0.00000000      -0.65810776
2
Properties=species:S:1:pos:R:3:forces:R:3 energy=-1.1851846038331562 pbc="F F F"
Lu       0.00000000       0.00000000       0.00000000       0.00000000       0.00000000       0.63443971
Lu       0.00000000       0.00000000       4.45050505       0.00000000       0.00000000      -0.63443971
2
Properties=species:S:1:pos:R:3:forces:R:3 energy=-1.1480508584872324 pbc="F F F"
Lu       0.00000000       0.00000000       0.00000000       0.00000000       0.00000000       0.61190498
Lu       0.00000000       0.00000000       4.51010101       0.00000000       0.00000000      -0.61190498
2
Properties=species:S:1:pos:R:3:forces:R:3 energy=-1.1122418026921344 pbc="F F F"
Lu       0.00000000       0.00000000       0.00000000       0.00000000       0.00000000       0.58981186
Lu       0.00000000       0.00000000       4.56969697       0.00000000       0.00000000      -0.58981186
2
Properties=species:S:1:pos:R:3:forces:R:3 energy=-1.0777525595547433 pbc="F F F"
Lu       0.00000000       0.00000000       0.00000000       0.00000000       0.00000000       0.56754744
Lu       0.00000000       0.00000000       4.62929293       0.00000000       0.00000000      -0.56754744
2
Properties=species:S:1:pos:R:3:forces:R:3 energy=-1.0446085740271602 pbc="F F F"
Lu       0.00000000       0.00000000       0.00000000       0.00000000       0.00000000       0.54462248
Lu       0.00000000       0.00000000       4.68888889       0.00000000       0.00000000      -0.54462248
2
Properties=species:S:1:pos:R:3:forces:R:3 energy=-1.0128583106297746 pbc="F F F"
Lu       0.00000000       0.00000000       0.00000000       0.00000000       0.00000000       0.52066541
Lu       0.00000000       0.00000000       4.74848485       0.00000000       0.00000000      -0.52066541
2
Properties=species:S:1:pos:R:3:forces:R:3 energy=-0.9825740550701169 pbc="F F F"
Lu       0.00000000       0.00000000       0.00000000       0.00000000       0.00000000       0.49547005
Lu       0.00000000       0.00000000       4.80808081       0.00000000       0.00000000      -0.49547005
2
Properties=species:S:1:pos:R:3:forces:R:3 energy=-0.953827377304096 pbc="F F F"
Lu       0.00000000       0.00000000       0.00000000       0.00000000       0.00000000       0.46902260
Lu       0.00000000       0.00000000       4.86767677       0.00000000       0.00000000      -0.46902260
2
Properties=species:S:1:pos:R:3:forces:R:3 energy=-0.9266885711675138 pbc="F F F"
Lu       0.00000000       0.00000000       0.00000000       0.00000000       0.00000000       0.44160399
Lu       0.00000000       0.00000000       4.92727273       0.00000000       0.00000000      -0.44160399
2
Properties=species:S:1:pos:R:3:forces:R:3 energy=-0.9011989572231772 pbc="F F F"
Lu       0.00000000       0.00000000       0.00000000       0.00000000       0.00000000       0.41381577
Lu       0.00000000       0.00000000       4.98686869       0.00000000       0.00000000      -0.41381577
2
Properties=species:S:1:pos:R:3:forces:R:3 energy=-0.8773566740967103 pbc="F F F"
Lu       0.00000000       0.00000000       0.00000000       0.00000000       0.00000000       0.38658395
Lu       0.00000000       0.00000000       5.04646465       0.00000000       0.00000000      -0.38658395
2
Properties=species:S:1:pos:R:3:forces:R:3 energy=-0.8550916370221525 pbc="F F F"
Lu       0.00000000       0.00000000       0.00000000       0.00000000       0.00000000       0.36093813
Lu       0.00000000       0.00000000       5.10606061       0.00000000       0.00000000      -0.36093813
2
Properties=species:S:1:pos:R:3:forces:R:3 energy=-0.8342850596550456 pbc="F F F"
Lu       0.00000000       0.00000000       0.00000000       0.00000000       0.00000000       0.33763650
Lu       0.00000000       0.00000000       5.16565657       0.00000000       0.00000000      -0.33763650
2
Properties=species:S:1:pos:R:3:forces:R:3 energy=-0.8148013166308353 pbc="F F F"
Lu       0.00000000       0.00000000       0.00000000       0.00000000       0.00000000       0.31653380
Lu       0.00000000       0.00000000       5.22525253       0.00000000       0.00000000      -0.31653380
2
Properties=species:S:1:pos:R:3:forces:R:3 energy=-0.796546847041092 pbc="F F F"
Lu       0.00000000       0.00000000       0.00000000       0.00000000       0.00000000       0.29594702
Lu       0.00000000       0.00000000       5.28484848       0.00000000       0.00000000      -0.29594702
2
Properties=species:S:1:pos:R:3:forces:R:3 energy=-0.7795715577733844 pbc="F F F"
Lu       0.00000000       0.00000000       0.00000000       0.00000000       0.00000000       0.27319223
Lu       0.00000000       0.00000000       5.34444444       0.00000000       0.00000000      -0.27319223
2
Properties=species:S:1:pos:R:3:forces:R:3 energy=-0.7640194722812994 pbc="F F F"
Lu       0.00000000       0.00000000       0.00000000       0.00000000       0.00000000       0.24897231
Lu       0.00000000       0.00000000       5.40404040       0.00000000       0.00000000      -0.24897231
2
Properties=species:S:1:pos:R:3:forces:R:3 energy=-0.7497566752239324 pbc="F F F"
Lu       0.00000000       0.00000000       0.00000000       0.00000000       0.00000000       0.23140243
Lu       0.00000000       0.00000000       5.46363636       0.00000000       0.00000000      -0.23140243
2
Properties=species:S:1:pos:R:3:forces:R:3 energy=-0.7362790623147553 pbc="F F F"
Lu       0.00000000       0.00000000       0.00000000       0.00000000       0.00000000       0.22118101
Lu       0.00000000       0.00000000       5.52323232       0.00000000       0.00000000      -0.22118101
2
Properties=species:S:1:pos:R:3:forces:R:3 energy=-0.7235767047053944 pbc="F F F"
Lu       0.00000000       0.00000000       0.00000000       0.00000000       0.00000000       0.20269182
Lu       0.00000000       0.00000000       5.58282828       0.00000000       0.00000000      -0.20269182
2
Properties=species:S:1:pos:R:3:forces:R:3 energy=-0.7123293605560082 pbc="F F F"
Lu       0.00000000       0.00000000       0.00000000       0.00000000       0.00000000       0.17438979
Lu       0.00000000       0.00000000       5.64242424       0.00000000       0.00000000      -0.17438979
2
Properties=species:S:1:pos:R:3:forces:R:3 energy=-0.7025995683388072 pbc="F F F"
Lu       0.00000000       0.00000000       0.00000000       0.00000000       0.00000000       0.15554707
Lu       0.00000000       0.00000000       5.70202020       0.00000000       0.00000000      -0.15554707
2
Properties=species:S:1:pos:R:3:forces:R:3 energy=-0.6932847920375242 pbc="F F F"
Lu       0.00000000       0.00000000       0.00000000       0.00000000       0.00000000       0.16028236
Lu       0.00000000       0.00000000       5.76161616       0.00000000       0.00000000      -0.16028236
2
Properties=species:S:1:pos:R:3:forces:R:3 energy=-0.6836670627160206 pbc="F F F"
Lu       0.00000000       0.00000000       0.00000000       0.00000000       0.00000000       0.15614460
Lu       0.00000000       0.00000000       5.82121212       0.00000000       0.00000000      -0.15614460
2
Properties=species:S:1:pos:R:3:forces:R:3 energy=-0.6756191010607329 pbc="F F F"
Lu       0.00000000       0.00000000       0.00000000       0.00000000       0.00000000       0.10842048
Lu       0.00000000       0.00000000       5.88080808       0.00000000       0.00000000      -0.10842048
2
Properties=species:S:1:pos:R:3:forces:R:3 energy=-0.6709688942601303 pbc="F F F"
Lu       0.00000000       0.00000000       0.00000000       0.00000000       0.00000000       0.04884085
Lu       0.00000000       0.00000000       5.94040404       0.00000000       0.00000000      -0.04884085
2
Properties=species:S:1:pos:R:3:forces:R:3 energy=-0.6690739320982 pbc="F F F"
Lu       0.00000000       0.00000000       0.00000000       0.00000000       0.00000000       0.02315903
Lu       0.00000000       0.00000000       6.00000000       0.00000000       0.00000000      -0.02315903
