2
Properties=species:S:1:pos:R:3:forces:R:3 energy=14947.950778491148 pbc="F F F"
Mn       0.00000000       0.00000000       0.00000000       0.00000000       0.00000000 -309683.31250000
Mn       0.00000000       0.00000000       0.10000000       0.00000000       0.00000000  309683.31250000
2
Properties=species:S:1:pos:R:3:forces:R:3 energy=5497.5933566161475 pbc="F F F"
Mn       0.00000000       0.00000000       0.00000000       0.00000000       0.00000000  -74038.64843750
Mn       0.00000000       0.00000000       0.15959596       0.00000000       0.00000000   74038.64843750
2
Properties=species:S:1:pos:R:3:forces:R:3 energy=2866.5501437255225 pbc="F F F"
Mn       0.00000000       0.00000000       0.00000000       0.00000000       0.00000000  -24862.12890625
Mn       0.00000000       0.00000000       0.21919192       0.00000000       0.00000000   24862.12890625
2
Properties=species:S:1:pos:R:3:forces:R:3 energy=1897.133761889585 pbc="F F F"
Mn       0.00000000       0.00000000       0.00000000       0.00000000       0.00000000  -10263.85937500
Mn       0.00000000       0.00000000       0.27878788       0.00000000       0.00000000   10263.85937500
2
Properties=species:S:1:pos:R:3:forces:R:3 energy=1466.927707202085 pbc="F F F"
Mn       0.00000000       0.00000000       0.00000000       0.00000000       0.00000000   -4998.82666016
Mn       0.00000000       0.00000000       0.33838384       0.00000000       0.00000000    4998.82666016
2
Properties=species:S:1:pos:R:3:forces:R:3 energy=1239.6637911927955 pbc="F F F"
Mn       0.00000000       0.00000000       0.00000000       0.00000000       0.00000000   -2949.47387695
Mn       0.00000000       0.00000000       0.39797980       0.00000000       0.00000000    2949.47387695
2
Properties=species:S:1:pos:R:3:forces:R:3 energy=1089.3584933475688 pbc="F F F"
Mn       0.00000000       0.00000000       0.00000000       0.00000000       0.00000000   -2242.90576172
Mn       0.00000000       0.00000000       0.45757576       0.00000000       0.00000000    2242.90576172
2
Properties=species:S:1:pos:R:3:forces:R:3 energy=959.599032917357 pbc="F F F"
Mn       0.00000000       0.00000000       0.00000000       0.00000000       0.00000000   -2187.62963867
Mn       0.00000000       0.00000000       0.51717172       0.00000000       0.00000000    2187.62963867
2
Properties=species:S:1:pos:R:3:forces:R:3 energy=822.2597385154414 pbc="F F F"
Mn       0.00000000       0.00000000       0.00000000       0.00000000       0.00000000   -2453.86791992
Mn       0.00000000       0.00000000       0.57676768       0.00000000       0.00000000    2453.86791992
2
Properties=species:S:1:pos:R:3:forces:R:3 energy=665.0428806559703 pbc="F F F"
Mn       0.00000000       0.00000000       0.00000000       0.00000000       0.00000000   -2889.04418945
Mn       0.00000000       0.00000000       0.63636364       0.00000000       0.00000000    2889.04418945
2
Properties=species:S:1:pos:R:3:forces:R:3 energy=488.1326634531775 pbc="F F F"
Mn       0.00000000       0.00000000       0.00000000       0.00000000       0.00000000   -2976.08251953
Mn       0.00000000       0.00000000       0.69595960       0.00000000       0.00000000    2976.08251953
2
Properties=species:S:1:pos:R:3:forces:R:3 energy=319.4019201653516 pbc="F F F"
Mn       0.00000000       0.00000000       0.00000000       0.00000000       0.00000000   -2548.20947266
Mn       0.00000000       0.00000000       0.75555556       0.00000000       0.00000000    2548.20947266
2
Properties=species:S:1:pos:R:3:forces:R:3 energy=197.42074970112404 pbc="F F F"
Mn       0.00000000       0.00000000       0.00000000       0.00000000       0.00000000   -1628.51940918
Mn       0.00000000       0.00000000       0.81515152       0.00000000       0.00000000    1628.51940918
2
Properties=species:S:1:pos:R:3:forces:R:3 energy=127.42620498431094 pbc="F F F"
Mn       0.00000000       0.00000000       0.00000000       0.00000000       0.00000000    -804.50585938
Mn       0.00000000       0.00000000       0.87474747       0.00000000       0.00000000     804.50585938
2
Properties=species:S:1:pos:R:3:forces:R:3 energy=86.63833305633212 pbc="F F F"
Mn       0.00000000       0.00000000       0.00000000       0.00000000       0.00000000    -599.85937500
Mn       0.00000000       0.00000000       0.93434343       0.00000000       0.00000000     599.85937500
2
Properties=species:S:1:pos:R:3:forces:R:3 energy=56.23528029849919 pbc="F F F"
Mn       0.00000000       0.00000000       0.00000000       0.00000000       0.00000000    -424.27938843
Mn       0.00000000       0.00000000       0.99393939       0.00000000       0.00000000     424.27938843
2
Properties=species:S:1:pos:R:3:forces:R:3 energy=35.27944758253622 pbc="F F F"
Mn       0.00000000       0.00000000       0.00000000       0.00000000       0.00000000    -288.15872192
Mn       0.00000000       0.00000000       1.05353535       0.00000000       0.00000000     288.15872192
2
Properties=species:S:1:pos:R:3:forces:R:3 energy=20.924368891507427 pbc="F F F"
Mn       0.00000000       0.00000000       0.00000000       0.00000000       0.00000000    -199.64918518
Mn       0.00000000       0.00000000       1.11313131       0.00000000       0.00000000     199.64918518
2
Properties=species:S:1:pos:R:3:forces:R:3 energy=10.961315498486044 pbc="F F F"
Mn       0.00000000       0.00000000       0.00000000       0.00000000       0.00000000    -137.88313293
Mn       0.00000000       0.00000000       1.17272727       0.00000000       0.00000000     137.88313293
2
Properties=species:S:1:pos:R:3:forces:R:3 energy=4.170692524055465 pbc="F F F"
Mn       0.00000000       0.00000000       0.00000000       0.00000000       0.00000000     -92.67636108
Mn       0.00000000       0.00000000       1.23232323       0.00000000       0.00000000      92.67636108
2
Properties=species:S:1:pos:R:3:forces:R:3 energy=-0.4320294414923672 pbc="F F F"
Mn       0.00000000       0.00000000       0.00000000       0.00000000       0.00000000     -64.46505737
Mn       0.00000000       0.00000000       1.29191919       0.00000000       0.00000000      64.46505737
2
Properties=species:S:1:pos:R:3:forces:R:3 energy=-3.689642327768492 pbc="F F F"
Mn       0.00000000       0.00000000       0.00000000       0.00000000       0.00000000     -45.10195160
Mn       0.00000000       0.00000000       1.35151515       0.00000000       0.00000000      45.10195160
2
Properties=species:S:1:pos:R:3:forces:R:3 energy=-5.822946897348744 pbc="F F F"
Mn       0.00000000       0.00000000       0.00000000       0.00000000       0.00000000     -27.27359962
Mn       0.00000000       0.00000000       1.41111111       0.00000000       0.00000000      27.27359962
2
Properties=species:S:1:pos:R:3:forces:R:3 energy=-7.10580632009558 pbc="F F F"
Mn       0.00000000       0.00000000       0.00000000       0.00000000       0.00000000     -17.19906044
Mn       0.00000000       0.00000000       1.47070707       0.00000000       0.00000000      17.19906044
2
Properties=species:S:1:pos:R:3:forces:R:3 energy=-7.979906139535175 pbc="F F F"
Mn       0.00000000       0.00000000       0.00000000       0.00000000       0.00000000     -12.51040745
Mn       0.00000000       0.00000000       1.53030303       0.00000000       0.00000000      12.51040745
2
Properties=species:S:1:pos:R:3:forces:R:3 energy=-8.611268027495125 pbc="F F F"
Mn       0.00000000       0.00000000       0.00000000       0.00000000       0.00000000      -8.72410774
Mn       0.00000000       0.00000000       1.58989899       0.00000000       0.00000000       8.72410774
2
Properties=species:S:1:pos:R:3:forces:R:3 energy=-9.03322900518222 pbc="F F F"
Mn       0.00000000       0.00000000       0.00000000       0.00000000       0.00000000      -5.63164091
Mn       0.00000000       0.00000000       1.64949495       0.00000000       0.00000000       5.63164091
2
Properties=species:S:1:pos:R:3:forces:R:3 energy=-9.311067596381664 pbc="F F F"
Mn       0.00000000       0.00000000       0.00000000       0.00000000       0.00000000      -3.93442249
Mn       0.00000000       0.00000000       1.70909091       0.00000000       0.00000000       3.93442249
2
Properties=species:S:1:pos:R:3:forces:R:3 energy=-9.524810693777432 pbc="F F F"
Mn       0.00000000       0.00000000       0.00000000       0.00000000       0.00000000      -3.35858870
Mn       0.00000000       0.00000000       1.76868687       0.00000000       0.00000000       3.35858870
2
Properties=species:S:1:pos:R:3:forces:R:3 energy=-9.718255590617837 pbc="F F F"
Mn       0.00000000       0.00000000       0.00000000       0.00000000       0.00000000      -3.14895797
Mn       0.00000000       0.00000000       1.82828283       0.00000000       0.00000000       3.14895797
2
Properties=species:S:1:pos:R:3:forces:R:3 energy=-9.900582149644466 pbc="F F F"
Mn       0.00000000       0.00000000       0.00000000       0.00000000       0.00000000      -2.97388387
Mn       0.00000000       0.00000000       1.88787879       0.00000000       0.00000000       2.97388387
2
Properties=species:S:1:pos:R:3:forces:R:3 energy=-10.074003401643374 pbc="F F F"
Mn       0.00000000       0.00000000       0.00000000       0.00000000       0.00000000      -2.86291313
Mn       0.00000000       0.00000000       1.94747475       0.00000000       0.00000000       2.86291313
2
Properties=species:S:1:pos:R:3:forces:R:3 energy=-10.24413411736858 pbc="F F F"
Mn       0.00000000       0.00000000       0.00000000       0.00000000       0.00000000      -2.86527586
Mn       0.00000000       0.00000000       2.00707071       0.00000000       0.00000000       2.86527586
2
Properties=species:S:1:pos:R:3:forces:R:3 energy=-10.417097318164695 pbc="F F F"
Mn       0.00000000       0.00000000       0.00000000       0.00000000       0.00000000      -2.94406414
Mn       0.00000000       0.00000000       2.06666667       0.00000000       0.00000000       2.94406414
2
Properties=species:S:1:pos:R:3:forces:R:3 energy=-10.594335526768969 pbc="F F F"
Mn       0.00000000       0.00000000       0.00000000       0.00000000       0.00000000      -2.98785067
Mn       0.00000000       0.00000000       2.12626263       0.00000000       0.00000000       2.98785067
2
Properties=species:S:1:pos:R:3:forces:R:3 energy=-10.770513151853608 pbc="F F F"
Mn       0.00000000       0.00000000       0.00000000       0.00000000       0.00000000      -2.89816737
Mn       0.00000000       0.00000000       2.18585859       0.00000000       0.00000000       2.89816737
2
Properties=species:S:1:pos:R:3:forces:R:3 energy=-10.93665612166108 pbc="F F F"
Mn       0.00000000       0.00000000       0.00000000       0.00000000       0.00000000      -2.65319037
Mn       0.00000000       0.00000000       2.24545455       0.00000000       0.00000000       2.65319037
2
Properties=species:S:1:pos:R:3:forces:R:3 energy=-11.084207927366863 pbc="F F F"
Mn       0.00000000       0.00000000       0.00000000       0.00000000       0.00000000      -2.28053069
Mn       0.00000000       0.00000000       2.30505051       0.00000000       0.00000000       2.28053069
2
Properties=species:S:1:pos:R:3:forces:R:3 energy=-11.206777967484793 pbc="F F F"
Mn       0.00000000       0.00000000       0.00000000       0.00000000       0.00000000      -1.82273221
Mn       0.00000000       0.00000000       2.36464646       0.00000000       0.00000000       1.82273221
2
Properties=species:S:1:pos:R:3:forces:R:3 energy=-11.300835041450256 pbc="F F F"
Mn       0.00000000       0.00000000       0.00000000       0.00000000       0.00000000      -1.33364236
Mn       0.00000000       0.00000000       2.42424242       0.00000000       0.00000000       1.33364236
2
Properties=species:S:1:pos:R:3:forces:R:3 energy=-11.366357225096152 pbc="F F F"
Mn       0.00000000       0.00000000       0.00000000       0.00000000       0.00000000      -0.87555259
Mn       0.00000000       0.00000000       2.48383838       0.00000000       0.00000000       0.87555259
2
Properties=species:S:1:pos:R:3:forces:R:3 energy=-11.406948029400818 pbc="F F F"
Mn       0.00000000       0.00000000       0.00000000       0.00000000       0.00000000      -0.50471115
Mn       0.00000000       0.00000000       2.54343434       0.00000000       0.00000000       0.50471115
2
Properties=species:S:1:pos:R:3:forces:R:3 energy=-11.428697097838862 pbc="F F F"
Mn       0.00000000       0.00000000       0.00000000       0.00000000       0.00000000      -0.24049574
Mn       0.00000000       0.00000000       2.60303030       0.00000000       0.00000000       0.24049574
2
Properties=species:S:1:pos:R:3:forces:R:3 energy=-11.436428853919407 pbc="F F F"
Mn       0.00000000       0.00000000       0.00000000       0.00000000       0.00000000      -0.01603177
Mn       0.00000000       0.00000000       2.66262626       0.00000000       0.00000000       0.01603177
2
Properties=species:S:1:pos:R:3:forces:R:3 energy=-11.429813942341864 pbc="F F F"
Mn       0.00000000       0.00000000       0.00000000       0.00000000       0.00000000       0.24092440
Mn       0.00000000       0.00000000       2.72222222       0.00000000       0.00000000      -0.24092440
2
Properties=species:S:1:pos:R:3:forces:R:3 energy=-11.40851682861537 pbc="F F F"
Mn       0.00000000       0.00000000       0.00000000       0.00000000       0.00000000       0.45928383
Mn       0.00000000       0.00000000       2.78181818       0.00000000       0.00000000      -0.45928383
2
Properties=species:S:1:pos:R:3:forces:R:3 energy=-11.377000313718892 pbc="F F F"
Mn       0.00000000       0.00000000       0.00000000       0.00000000       0.00000000       0.58358896
Mn       0.00000000       0.00000000       2.84141414       0.00000000       0.00000000      -0.58358896
2
Properties=species:S:1:pos:R:3:forces:R:3 energy=-11.340366473767832 pbc="F F F"
Mn       0.00000000       0.00000000       0.00000000       0.00000000       0.00000000       0.63689244
Mn       0.00000000       0.00000000       2.90101010       0.00000000       0.00000000      -0.63689244
2
Properties=species:S:1:pos:R:3:forces:R:3 energy=-11.301894667018583 pbc="F F F"
Mn       0.00000000       0.00000000       0.00000000       0.00000000       0.00000000       0.64914119
Mn       0.00000000       0.00000000       2.96060606       0.00000000       0.00000000      -0.64914119
2
Properties=species:S:1:pos:R:3:forces:R:3 energy=-11.263449853138438 pbc="F F F"
Mn       0.00000000       0.00000000       0.00000000       0.00000000       0.00000000       0.63818854
Mn       0.00000000       0.00000000       3.02020202       0.00000000       0.00000000      -0.63818854
2
Properties=species:S:1:pos:R:3:forces:R:3 energy=-11.22607090935039 pbc="F F F"
Mn       0.00000000       0.00000000       0.00000000       0.00000000       0.00000000       0.61485589
Mn       0.00000000       0.00000000       3.07979798       0.00000000       0.00000000      -0.61485589
2
Properties=species:S:1:pos:R:3:forces:R:3 energy=-11.190265322102151 pbc="F F F"
Mn       0.00000000       0.00000000       0.00000000       0.00000000       0.00000000       0.58634007
Mn       0.00000000       0.00000000       3.13939394       0.00000000       0.00000000      -0.58634007
2
Properties=species:S:1:pos:R:3:forces:R:3 energy=-11.156198173174896 pbc="F F F"
Mn       0.00000000       0.00000000       0.00000000       0.00000000       0.00000000       0.55702472
Mn       0.00000000       0.00000000       3.19898990       0.00000000       0.00000000      -0.55702472
2
Properties=species:S:1:pos:R:3:forces:R:3 energy=-11.123849441423927 pbc="F F F"
Mn       0.00000000       0.00000000       0.00000000       0.00000000       0.00000000       0.52881378
Mn       0.00000000       0.00000000       3.25858586       0.00000000       0.00000000      -0.52881378
2
Properties=species:S:1:pos:R:3:forces:R:3 energy=-11.093142342051344 pbc="F F F"
Mn       0.00000000       0.00000000       0.00000000       0.00000000       0.00000000       0.50182325
Mn       0.00000000       0.00000000       3.31818182       0.00000000       0.00000000      -0.50182325
2
Properties=species:S:1:pos:R:3:forces:R:3 energy=-11.064026581055879 pbc="F F F"
Mn       0.00000000       0.00000000       0.00000000       0.00000000       0.00000000       0.47533697
Mn       0.00000000       0.00000000       3.37777778       0.00000000       0.00000000      -0.47533697
2
Properties=species:S:1:pos:R:3:forces:R:3 energy=-11.036490901726793 pbc="F F F"
Mn       0.00000000       0.00000000       0.00000000       0.00000000       0.00000000       0.44862631
Mn       0.00000000       0.00000000       3.43737374       0.00000000       0.00000000      -0.44862631
2
Properties=species:S:1:pos:R:3:forces:R:3 energy=-11.010564329757827 pbc="F F F"
Mn       0.00000000       0.00000000       0.00000000       0.00000000       0.00000000       0.42139170
Mn       0.00000000       0.00000000       3.49696970       0.00000000       0.00000000      -0.42139170
2
Properties=species:S:1:pos:R:3:forces:R:3 energy=-10.986271565966245 pbc="F F F"
Mn       0.00000000       0.00000000       0.00000000       0.00000000       0.00000000       0.39382234
Mn       0.00000000       0.00000000       3.55656566       0.00000000       0.00000000      -0.39382234
2
Properties=species:S:1:pos:R:3:forces:R:3 energy=-10.963619900949455 pbc="F F F"
Mn       0.00000000       0.00000000       0.00000000       0.00000000       0.00000000       0.36643833
Mn       0.00000000       0.00000000       3.61616162       0.00000000       0.00000000      -0.36643833
2
Properties=species:S:1:pos:R:3:forces:R:3 energy=-10.942579181588732 pbc="F F F"
Mn       0.00000000       0.00000000       0.00000000       0.00000000       0.00000000       0.33986843
Mn       0.00000000       0.00000000       3.67575758       0.00000000       0.00000000      -0.33986843
2
Properties=species:S:1:pos:R:3:forces:R:3 energy=-10.923082973799787 pbc="F F F"
Mn       0.00000000       0.00000000       0.00000000       0.00000000       0.00000000       0.31468770
Mn       0.00000000       0.00000000       3.73535354       0.00000000       0.00000000      -0.31468770
2
Properties=species:S:1:pos:R:3:forces:R:3 energy=-10.905034360606395 pbc="F F F"
Mn       0.00000000       0.00000000       0.00000000       0.00000000       0.00000000       0.29131183
Mn       0.00000000       0.00000000       3.79494949       0.00000000       0.00000000      -0.29131183
2
Properties=species:S:1:pos:R:3:forces:R:3 energy=-10.888320259926443 pbc="F F F"
Mn       0.00000000       0.00000000       0.00000000       0.00000000       0.00000000       0.26996598
Mn       0.00000000       0.00000000       3.85454545       0.00000000       0.00000000      -0.26996598
2
Properties=species:S:1:pos:R:3:forces:R:3 energy=-10.872816332327675 pbc="F F F"
Mn       0.00000000       0.00000000       0.00000000       0.00000000       0.00000000       0.25069019
Mn       0.00000000       0.00000000       3.91414141       0.00000000       0.00000000      -0.25069019
2
Properties=species:S:1:pos:R:3:forces:R:3 energy=-10.858401235457281 pbc="F F F"
Mn       0.00000000       0.00000000       0.00000000       0.00000000       0.00000000       0.23337136
Mn       0.00000000       0.00000000       3.97373737       0.00000000       0.00000000      -0.23337136
2
Properties=species:S:1:pos:R:3:forces:R:3 energy=-10.844965257795911 pbc="F F F"
Mn       0.00000000       0.00000000       0.00000000       0.00000000       0.00000000       0.21780169
Mn       0.00000000       0.00000000       4.03333333       0.00000000       0.00000000      -0.21780169
2
Properties=species:S:1:pos:R:3:forces:R:3 energy=-10.832411170961675 pbc="F F F"
Mn       0.00000000       0.00000000       0.00000000       0.00000000       0.00000000       0.20372429
Mn       0.00000000       0.00000000       4.09292929       0.00000000       0.00000000      -0.20372429
2
Properties=species:S:1:pos:R:3:forces:R:3 energy=-10.82065801272919 pbc="F F F"
Mn       0.00000000       0.00000000       0.00000000       0.00000000       0.00000000       0.19089028
Mn       0.00000000       0.00000000       4.15252525       0.00000000       0.00000000      -0.19089028
2
Properties=species:S:1:pos:R:3:forces:R:3 energy=-10.809638111965029 pbc="F F F"
Mn       0.00000000       0.00000000       0.00000000       0.00000000       0.00000000       0.17909117
Mn       0.00000000       0.00000000       4.21212121       0.00000000       0.00000000      -0.17909117
2
Properties=species:S:1:pos:R:3:forces:R:3 energy=-10.799294018528512 pbc="F F F"
Mn       0.00000000       0.00000000       0.00000000       0.00000000       0.00000000       0.16817854
Mn       0.00000000       0.00000000       4.27171717       0.00000000       0.00000000      -0.16817854
2
Properties=species:S:1:pos:R:3:forces:R:3 energy=-10.789576570580502 pbc="F F F"
Mn       0.00000000       0.00000000       0.00000000       0.00000000       0.00000000       0.15805945
Mn       0.00000000       0.00000000       4.33131313       0.00000000       0.00000000      -0.15805945
2
Properties=species:S:1:pos:R:3:forces:R:3 energy=-10.780439790422667 pbc="F F F"
Mn       0.00000000       0.00000000       0.00000000       0.00000000       0.00000000       0.14868163
Mn       0.00000000       0.00000000       4.39090909       0.00000000       0.00000000      -0.14868163
2
Properties=species:S:1:pos:R:3:forces:R:3 energy=-10.771840764120242 pbc="F F F"
Mn       0.00000000       0.00000000       0.00000000       0.00000000       0.00000000       0.14000624
Mn       0.00000000       0.00000000       4.45050505       0.00000000       0.00000000      -0.14000624
2
Properties=species:S:1:pos:R:3:forces:R:3 energy=-10.763739457768343 pbc="F F F"
Mn       0.00000000       0.00000000       0.00000000       0.00000000       0.00000000       0.13198203
Mn       0.00000000       0.00000000       4.51010101       0.00000000       0.00000000      -0.13198203
2
Properties=species:S:1:pos:R:3:forces:R:3 energy=-10.75609837536718 pbc="F F F"
Mn       0.00000000       0.00000000       0.00000000       0.00000000       0.00000000       0.12451813
Mn       0.00000000       0.00000000       4.56969697       0.00000000       0.00000000      -0.12451813
2
Properties=species:S:1:pos:R:3:forces:R:3 energy=-10.748889291563064 pbc="F F F"
Mn       0.00000000       0.00000000       0.00000000       0.00000000       0.00000000       0.11747542
Mn       0.00000000       0.00000000       4.62929293       0.00000000       0.00000000      -0.11747542
2
Properties=species:S:1:pos:R:3:forces:R:3 energy=-10.742091892492855 pbc="F F F"
Mn       0.00000000       0.00000000       0.00000000       0.00000000       0.00000000       0.11067480
Mn       0.00000000       0.00000000       4.68888889       0.00000000       0.00000000      -0.11067480
2
Properties=species:S:1:pos:R:3:forces:R:3 energy=-10.735696684324255 pbc="F F F"
Mn       0.00000000       0.00000000       0.00000000       0.00000000       0.00000000       0.10392208
Mn       0.00000000       0.00000000       4.74848485       0.00000000       0.00000000      -0.10392208
2
Properties=species:S:1:pos:R:3:forces:R:3 energy=-10.729707531160882 pbc="F F F"
Mn       0.00000000       0.00000000       0.00000000       0.00000000       0.00000000       0.09706472
Mn       0.00000000       0.00000000       4.80808081       0.00000000       0.00000000      -0.09706472
2
Properties=species:S:1:pos:R:3:forces:R:3 energy=-10.724131351526307 pbc="F F F"
Mn       0.00000000       0.00000000       0.00000000       0.00000000       0.00000000       0.09005460
Mn       0.00000000       0.00000000       4.86767677       0.00000000       0.00000000      -0.09005460
2
Properties=species:S:1:pos:R:3:forces:R:3 energy=-10.718974053408836 pbc="F F F"
Mn       0.00000000       0.00000000       0.00000000       0.00000000       0.00000000       0.08300758
Mn       0.00000000       0.00000000       4.92727273       0.00000000       0.00000000      -0.08300758
2
Properties=species:S:1:pos:R:3:forces:R:3 energy=-10.714232001877818 pbc="F F F"
Mn       0.00000000       0.00000000       0.00000000       0.00000000       0.00000000       0.07621949
Mn       0.00000000       0.00000000       4.98686869       0.00000000       0.00000000      -0.07621949
2
Properties=species:S:1:pos:R:3:forces:R:3 energy=-10.709875860473238 pbc="F F F"
Mn       0.00000000       0.00000000       0.00000000       0.00000000       0.00000000       0.07011862
Mn       0.00000000       0.00000000       5.04646465       0.00000000       0.00000000      -0.07011862
2
Properties=species:S:1:pos:R:3:forces:R:3 energy=-10.705852387680581 pbc="F F F"
Mn       0.00000000       0.00000000       0.00000000       0.00000000       0.00000000       0.06512778
Mn       0.00000000       0.00000000       5.10606061       0.00000000       0.00000000      -0.06512778
2
Properties=species:S:1:pos:R:3:forces:R:3 energy=-10.702086559691365 pbc="F F F"
Mn       0.00000000       0.00000000       0.00000000       0.00000000       0.00000000       0.06145734
Mn       0.00000000       0.00000000       5.16565657       0.00000000       0.00000000      -0.06145734
2
Properties=species:S:1:pos:R:3:forces:R:3 energy=-10.698505402757586 pbc="F F F"
Mn       0.00000000       0.00000000       0.00000000       0.00000000       0.00000000       0.05886163
Mn       0.00000000       0.00000000       5.22525253       0.00000000       0.00000000      -0.05886163
2
Properties=species:S:1:pos:R:3:forces:R:3 energy=-10.695066631931617 pbc="F F F"
Mn       0.00000000       0.00000000       0.00000000       0.00000000       0.00000000       0.05645230
Mn       0.00000000       0.00000000       5.28484848       0.00000000       0.00000000      -0.05645230
2
Properties=species:S:1:pos:R:3:forces:R:3 energy=-10.691798863778594 pbc="F F F"
Mn       0.00000000       0.00000000       0.00000000       0.00000000       0.00000000       0.05297771
Mn       0.00000000       0.00000000       5.34444444       0.00000000       0.00000000      -0.05297771
2
Properties=species:S:1:pos:R:3:forces:R:3 energy=-10.688774976852002 pbc="F F F"
Mn       0.00000000       0.00000000       0.00000000       0.00000000       0.00000000       0.04849453
Mn       0.00000000       0.00000000       5.40404040       0.00000000       0.00000000      -0.04849453
2
Properties=species:S:1:pos:R:3:forces:R:3 energy=-10.685968136966213 pbc="F F F"
Mn       0.00000000       0.00000000       0.00000000       0.00000000       0.00000000       0.04649482
Mn       0.00000000       0.00000000       5.46363636       0.00000000       0.00000000      -0.04649482
2
Properties=species:S:1:pos:R:3:forces:R:3 energy=-10.683147030821944 pbc="F F F"
Mn       0.00000000       0.00000000       0.00000000       0.00000000       0.00000000       0.04840776
Mn       0.00000000       0.00000000       5.52323232       0.00000000       0.00000000      -0.04840776
2
Properties=species:S:1:pos:R:3:forces:R:3 energy=-10.6802678990102 pbc="F F F"
Mn       0.00000000       0.00000000       0.00000000       0.00000000       0.00000000       0.04715294
Mn       0.00000000       0.00000000       5.58282828       0.00000000       0.00000000      -0.04715294
2
Properties=species:S:1:pos:R:3:forces:R:3 energy=-10.67763094018409 pbc="F F F"
Mn       0.00000000       0.00000000       0.00000000       0.00000000       0.00000000       0.04102653
Mn       0.00000000       0.00000000       5.64242424       0.00000000       0.00000000      -0.04102653
2
Properties=species:S:1:pos:R:3:forces:R:3 energy=-10.67531588158332 pbc="F F F"
Mn       0.00000000       0.00000000       0.00000000       0.00000000       0.00000000       0.03796659
Mn       0.00000000       0.00000000       5.70202020       0.00000000       0.00000000      -0.03796659
2
Properties=species:S:1:pos:R:3:forces:R:3 energy=-10.672912109793506 pbc="F F F"
Mn       0.00000000       0.00000000       0.00000000       0.00000000       0.00000000       0.04389904
Mn       0.00000000       0.00000000       5.76161616       0.00000000       0.00000000      -0.04389904
2
Properties=species:S:1:pos:R:3:forces:R:3 energy=-10.670134763361496 pbc="F F F"
Mn       0.00000000       0.00000000       0.00000000       0.00000000       0.00000000       0.04715464
Mn       0.00000000       0.00000000       5.82121212       0.00000000       0.00000000      -0.04715464
2
Properties=species:S:1:pos:R:3:forces:R:3 energy=-10.667603987666096 pbc="F F F"
Mn       0.00000000       0.00000000       0.00000000       0.00000000       0.00000000       0.03598152
Mn       0.00000000       0.00000000       5.88080808       0.00000000       0.00000000      -0.03598152
2
Properties=species:S:1:pos:R:3:forces:R:3 energy=-10.665923664937583 pbc="F F F"
Mn       0.00000000       0.00000000       0.00000000       0.00000000       0.00000000       0.02068334
Mn       0.00000000       0.00000000       5.94040404       0.00000000       0.00000000      -0.02068334
2
Properties=species:S:1:pos:R:3:forces:R:3 energy=-10.664961459840896 pbc="F F F"
Mn       0.00000000       0.00000000       0.00000000       0.00000000       0.00000000       0.01369574
Mn       0.00000000       0.00000000       6.00000000       0.00000000       0.00000000      -0.01369574
