2
Properties=species:S:1:pos:R:3:forces:R:3 energy=32590.26012790052 pbc="F F F"
Nb       0.00000000       0.00000000       0.00000000       0.00000000       0.00000000 -727435.68750000
Nb       0.00000000       0.00000000       0.10000000       0.00000000       0.00000000  727435.68750000
2
Properties=species:S:1:pos:R:3:forces:R:3 energy=10985.445674775521 pbc="F F F"
Nb       0.00000000       0.00000000       0.00000000       0.00000000       0.00000000 -162771.82812500
Nb       0.00000000       0.00000000       0.15959596       0.00000000       0.00000000  162771.82812500
2
Properties=species:S:1:pos:R:3:forces:R:3 energy=5312.30504977552 pbc="F F F"
Nb       0.00000000       0.00000000       0.00000000       0.00000000       0.00000000  -52348.46484375
Nb       0.00000000       0.00000000       0.21919192       0.00000000       0.00000000   52348.46484375
2
Properties=species:S:1:pos:R:3:forces:R:3 energy=3290.7640341505203 pbc="F F F"
Nb       0.00000000       0.00000000       0.00000000       0.00000000       0.00000000  -21287.43359375
Nb       0.00000000       0.00000000       0.27878788       0.00000000       0.00000000   21287.43359375
2
Properties=species:S:1:pos:R:3:forces:R:3 energy=2385.5108603223953 pbc="F F F"
Nb       0.00000000       0.00000000       0.00000000       0.00000000       0.00000000  -10892.67285156
Nb       0.00000000       0.00000000       0.33838384       0.00000000       0.00000000   10892.67285156
2
Properties=species:S:1:pos:R:3:forces:R:3 energy=1860.408809547481 pbc="F F F"
Nb       0.00000000       0.00000000       0.00000000       0.00000000       0.00000000   -7386.72167969
Nb       0.00000000       0.00000000       0.39797980       0.00000000       0.00000000    7386.72167969
2
Properties=species:S:1:pos:R:3:forces:R:3 energy=1459.2159384664023 pbc="F F F"
Nb       0.00000000       0.00000000       0.00000000       0.00000000       0.00000000   -5338.15820312
Nb       0.00000000       0.00000000       0.45757576       0.00000000       0.00000000    5338.15820312
2
Properties=species:S:1:pos:R:3:forces:R:3 energy=1174.6251181792447 pbc="F F F"
Nb       0.00000000       0.00000000       0.00000000       0.00000000       0.00000000   -4548.89892578
Nb       0.00000000       0.00000000       0.51717172       0.00000000       0.00000000    4548.89892578
2
Properties=species:S:1:pos:R:3:forces:R:3 energy=941.8284263290631 pbc="F F F"
Nb       0.00000000       0.00000000       0.00000000       0.00000000       0.00000000   -2967.45654297
Nb       0.00000000       0.00000000       0.57676768       0.00000000       0.00000000    2967.45654297
2
Properties=species:S:1:pos:R:3:forces:R:3 energy=772.4163170300908 pbc="F F F"
Nb       0.00000000       0.00000000       0.00000000       0.00000000       0.00000000   -2678.32714844
Nb       0.00000000       0.00000000       0.63636364       0.00000000       0.00000000    2678.32714844
2
Properties=species:S:1:pos:R:3:forces:R:3 energy=621.6259118833663 pbc="F F F"
Nb       0.00000000       0.00000000       0.00000000       0.00000000       0.00000000   -2255.99633789
Nb       0.00000000       0.00000000       0.69595960       0.00000000       0.00000000    2255.99633789
2
Properties=species:S:1:pos:R:3:forces:R:3 energy=503.3756068976543 pbc="F F F"
Nb       0.00000000       0.00000000       0.00000000       0.00000000       0.00000000   -1756.22814941
Nb       0.00000000       0.00000000       0.75555556       0.00000000       0.00000000    1756.22814941
2
Properties=species:S:1:pos:R:3:forces:R:3 energy=412.4964262745552 pbc="F F F"
Nb       0.00000000       0.00000000       0.00000000       0.00000000       0.00000000   -1319.80871582
Nb       0.00000000       0.00000000       0.81515152       0.00000000       0.00000000    1319.80871582
2
Properties=species:S:1:pos:R:3:forces:R:3 energy=341.5346041639351 pbc="F F F"
Nb       0.00000000       0.00000000       0.00000000       0.00000000       0.00000000   -1053.61437988
Nb       0.00000000       0.00000000       0.87474747       0.00000000       0.00000000    1053.61437988
2
Properties=species:S:1:pos:R:3:forces:R:3 energy=279.0725380964238 pbc="F F F"
Nb       0.00000000       0.00000000       0.00000000       0.00000000       0.00000000   -1078.96630859
Nb       0.00000000       0.00000000       0.93434343       0.00000000       0.00000000    1078.96630859
2
Properties=species:S:1:pos:R:3:forces:R:3 energy=215.50688032537903 pbc="F F F"
Nb       0.00000000       0.00000000       0.00000000       0.00000000       0.00000000    -972.11022949
Nb       0.00000000       0.00000000       0.99393939       0.00000000       0.00000000     972.11022949
2
Properties=species:S:1:pos:R:3:forces:R:3 energy=163.95396392830543 pbc="F F F"
Nb       0.00000000       0.00000000       0.00000000       0.00000000       0.00000000    -770.27941895
Nb       0.00000000       0.00000000       1.05353535       0.00000000       0.00000000     770.27941895
2
Properties=species:S:1:pos:R:3:forces:R:3 energy=122.45119590895314 pbc="F F F"
Nb       0.00000000       0.00000000       0.00000000       0.00000000       0.00000000    -626.48754883
Nb       0.00000000       0.00000000       1.11313131       0.00000000       0.00000000     626.48754883
2
Properties=species:S:1:pos:R:3:forces:R:3 energy=89.20292206548179 pbc="F F F"
Nb       0.00000000       0.00000000       0.00000000       0.00000000       0.00000000    -490.10641479
Nb       0.00000000       0.00000000       1.17272727       0.00000000       0.00000000     490.10641479
2
Properties=species:S:1:pos:R:3:forces:R:3 energy=63.67804127879067 pbc="F F F"
Nb       0.00000000       0.00000000       0.00000000       0.00000000       0.00000000    -371.22366333
Nb       0.00000000       0.00000000       1.23232323       0.00000000       0.00000000     371.22366333
2
Properties=species:S:1:pos:R:3:forces:R:3 energy=44.38670078299055 pbc="F F F"
Nb       0.00000000       0.00000000       0.00000000       0.00000000       0.00000000    -280.17059326
Nb       0.00000000       0.00000000       1.29191919       0.00000000       0.00000000     280.17059326
2
Properties=species:S:1:pos:R:3:forces:R:3 energy=29.910174756394017 pbc="F F F"
Nb       0.00000000       0.00000000       0.00000000       0.00000000       0.00000000    -208.33963013
Nb       0.00000000       0.00000000       1.35151515       0.00000000       0.00000000     208.33963013
2
Properties=species:S:1:pos:R:3:forces:R:3 energy=19.221255054487674 pbc="F F F"
Nb       0.00000000       0.00000000       0.00000000       0.00000000       0.00000000    -153.40872192
Nb       0.00000000       0.00000000       1.41111111       0.00000000       0.00000000     153.40872192
2
Properties=species:S:1:pos:R:3:forces:R:3 energy=11.263778117512928 pbc="F F F"
Nb       0.00000000       0.00000000       0.00000000       0.00000000       0.00000000    -116.30441284
Nb       0.00000000       0.00000000       1.47070707       0.00000000       0.00000000     116.30441284
2
Properties=species:S:1:pos:R:3:forces:R:3 energy=5.137613431139833 pbc="F F F"
Nb       0.00000000       0.00000000       0.00000000       0.00000000       0.00000000     -90.29736328
Nb       0.00000000       0.00000000       1.53030303       0.00000000       0.00000000      90.29736328
2
Properties=species:S:1:pos:R:3:forces:R:3 energy=0.43438934878273733 pbc="F F F"
Nb       0.00000000       0.00000000       0.00000000       0.00000000       0.00000000     -68.01104736
Nb       0.00000000       0.00000000       1.58989899       0.00000000       0.00000000      68.01104736
2
Properties=species:S:1:pos:R:3:forces:R:3 energy=-3.048192930818138 pbc="F F F"
Nb       0.00000000       0.00000000       0.00000000       0.00000000       0.00000000     -49.69266129
Nb       0.00000000       0.00000000       1.64949495       0.00000000       0.00000000      49.69266129
2
Properties=species:S:1:pos:R:3:forces:R:3 energy=-5.586643749344398 pbc="F F F"
Nb       0.00000000       0.00000000       0.00000000       0.00000000       0.00000000     -36.22030640
Nb       0.00000000       0.00000000       1.70909091       0.00000000       0.00000000      36.22030640
2
Properties=species:S:1:pos:R:3:forces:R:3 energy=-7.435308620517248 pbc="F F F"
Nb       0.00000000       0.00000000       0.00000000       0.00000000       0.00000000     -26.28560257
Nb       0.00000000       0.00000000       1.76868687       0.00000000       0.00000000      26.28560257
2
Properties=species:S:1:pos:R:3:forces:R:3 energy=-8.765359707036266 pbc="F F F"
Nb       0.00000000       0.00000000       0.00000000       0.00000000       0.00000000     -18.67285538
Nb       0.00000000       0.00000000       1.82828283       0.00000000       0.00000000      18.67285538
2
Properties=species:S:1:pos:R:3:forces:R:3 energy=-9.695053585809625 pbc="F F F"
Nb       0.00000000       0.00000000       0.00000000       0.00000000       0.00000000     -12.78511047
Nb       0.00000000       0.00000000       1.88787879       0.00000000       0.00000000      12.78511047
2
Properties=species:S:1:pos:R:3:forces:R:3 energy=-10.31726912136263 pbc="F F F"
Nb       0.00000000       0.00000000       0.00000000       0.00000000       0.00000000      -8.30809307
Nb       0.00000000       0.00000000       1.94747475       0.00000000       0.00000000       8.30809307
2
Properties=species:S:1:pos:R:3:forces:R:3 energy=-10.707664725438756 pbc="F F F"
Nb       0.00000000       0.00000000       0.00000000       0.00000000       0.00000000      -4.95579815
Nb       0.00000000       0.00000000       2.00707071       0.00000000       0.00000000       4.95579815
2
Properties=species:S:1:pos:R:3:forces:R:3 energy=-10.924448686216133 pbc="F F F"
Nb       0.00000000       0.00000000       0.00000000       0.00000000       0.00000000      -2.43521595
Nb       0.00000000       0.00000000       2.06666667       0.00000000       0.00000000       2.43521595
2
Properties=species:S:1:pos:R:3:forces:R:3 energy=-11.009418983759007 pbc="F F F"
Nb       0.00000000       0.00000000       0.00000000       0.00000000       0.00000000      -0.49549967
Nb       0.00000000       0.00000000       2.12626263       0.00000000       0.00000000       0.49549967
2
Properties=species:S:1:pos:R:3:forces:R:3 energy=-10.991326110384136 pbc="F F F"
Nb       0.00000000       0.00000000       0.00000000       0.00000000       0.00000000       1.04781520
Nb       0.00000000       0.00000000       2.18585859       0.00000000       0.00000000      -1.04781520
2
Properties=species:S:1:pos:R:3:forces:R:3 energy=-10.890306629538006 pbc="F F F"
Nb       0.00000000       0.00000000       0.00000000       0.00000000       0.00000000       2.29758644
Nb       0.00000000       0.00000000       2.24545455       0.00000000       0.00000000      -2.29758644
2
Properties=species:S:1:pos:R:3:forces:R:3 energy=-10.722675959444759 pbc="F F F"
Nb       0.00000000       0.00000000       0.00000000       0.00000000       0.00000000       3.28434110
Nb       0.00000000       0.00000000       2.30505051       0.00000000       0.00000000      -3.28434110
2
Properties=species:S:1:pos:R:3:forces:R:3 energy=-10.504068568884643 pbc="F F F"
Nb       0.00000000       0.00000000       0.00000000       0.00000000       0.00000000       4.00821161
Nb       0.00000000       0.00000000       2.36464646       0.00000000       0.00000000      -4.00821161
2
Properties=species:S:1:pos:R:3:forces:R:3 energy=-10.250029248614846 pbc="F F F"
Nb       0.00000000       0.00000000       0.00000000       0.00000000       0.00000000       4.47618389
Nb       0.00000000       0.00000000       2.42424242       0.00000000       0.00000000      -4.47618389
2
Properties=species:S:1:pos:R:3:forces:R:3 energy=-9.975111613060413 pbc="F F F"
Nb       0.00000000       0.00000000       0.00000000       0.00000000       0.00000000       4.71469927
Nb       0.00000000       0.00000000       2.48383838       0.00000000       0.00000000      -4.71469927
2
Properties=species:S:1:pos:R:3:forces:R:3 energy=-9.691835961730206 pbc="F F F"
Nb       0.00000000       0.00000000       0.00000000       0.00000000       0.00000000       4.76392555
Nb       0.00000000       0.00000000       2.54343434       0.00000000       0.00000000      -4.76392555
2
Properties=species:S:1:pos:R:3:forces:R:3 energy=-9.410205214178339 pbc="F F F"
Nb       0.00000000       0.00000000       0.00000000       0.00000000       0.00000000       4.66628075
Nb       0.00000000       0.00000000       2.60303030       0.00000000       0.00000000      -4.66628075
2
Properties=species:S:1:pos:R:3:forces:R:3 energy=-9.137838800260356 pbc="F F F"
Nb       0.00000000       0.00000000       0.00000000       0.00000000       0.00000000       4.45839739
Nb       0.00000000       0.00000000       2.66262626       0.00000000       0.00000000      -4.45839739
2
Properties=species:S:1:pos:R:3:forces:R:3 energy=-8.880412863258968 pbc="F F F"
Nb       0.00000000       0.00000000       0.00000000       0.00000000       0.00000000       4.16911602
Nb       0.00000000       0.00000000       2.72222222       0.00000000       0.00000000      -4.16911602
2
Properties=species:S:1:pos:R:3:forces:R:3 energy=-8.64205973979848 pbc="F F F"
Nb       0.00000000       0.00000000       0.00000000       0.00000000       0.00000000       3.82207656
Nb       0.00000000       0.00000000       2.78181818       0.00000000       0.00000000      -3.82207656
2
Properties=species:S:1:pos:R:3:forces:R:3 energy=-8.425559909553266 pbc="F F F"
Nb       0.00000000       0.00000000       0.00000000       0.00000000       0.00000000       3.43947959
Nb       0.00000000       0.00000000       2.84141414       0.00000000       0.00000000      -3.43947959
2
Properties=species:S:1:pos:R:3:forces:R:3 energy=-8.232350907770133 pbc="F F F"
Nb       0.00000000       0.00000000       0.00000000       0.00000000       0.00000000       3.04437065
Nb       0.00000000       0.00000000       2.90101010       0.00000000       0.00000000      -3.04437065
2
Properties=species:S:1:pos:R:3:forces:R:3 energy=-8.062474622821467 pbc="F F F"
Nb       0.00000000       0.00000000       0.00000000       0.00000000       0.00000000       2.66032887
Nb       0.00000000       0.00000000       2.96060606       0.00000000       0.00000000      -2.66032887
2
Properties=species:S:1:pos:R:3:forces:R:3 energy=-7.914590951800958 pbc="F F F"
Nb       0.00000000       0.00000000       0.00000000       0.00000000       0.00000000       2.30986667
Nb       0.00000000       0.00000000       3.02020202       0.00000000       0.00000000      -2.30986667
2
Properties=species:S:1:pos:R:3:forces:R:3 energy=-7.786089496467178 pbc="F F F"
Nb       0.00000000       0.00000000       0.00000000       0.00000000       0.00000000       2.01300287
Nb       0.00000000       0.00000000       3.07979798       0.00000000       0.00000000      -2.01300287
2
Properties=species:S:1:pos:R:3:forces:R:3 energy=-7.673312665585864 pbc="F F F"
Nb       0.00000000       0.00000000       0.00000000       0.00000000       0.00000000       1.78329992
Nb       0.00000000       0.00000000       3.13939394       0.00000000       0.00000000      -1.78329992
2
Properties=species:S:1:pos:R:3:forces:R:3 energy=-7.572240621423228 pbc="F F F"
Nb       0.00000000       0.00000000       0.00000000       0.00000000       0.00000000       1.61786628
Nb       0.00000000       0.00000000       3.19898990       0.00000000       0.00000000      -1.61786628
2
Properties=species:S:1:pos:R:3:forces:R:3 energy=-7.479647948908156 pbc="F F F"
Nb       0.00000000       0.00000000       0.00000000       0.00000000       0.00000000       1.49403405
Nb       0.00000000       0.00000000       3.25858586       0.00000000       0.00000000      -1.49403405
2
Properties=species:S:1:pos:R:3:forces:R:3 energy=-7.3938515795171424 pbc="F F F"
Nb       0.00000000       0.00000000       0.00000000       0.00000000       0.00000000       1.38649440
Nb       0.00000000       0.00000000       3.31818182       0.00000000       0.00000000      -1.38649440
2
Properties=species:S:1:pos:R:3:forces:R:3 energy=-7.3143035702434 pbc="F F F"
Nb       0.00000000       0.00000000       0.00000000       0.00000000       0.00000000       1.28363597
Nb       0.00000000       0.00000000       3.37777778       0.00000000       0.00000000      -1.28363597
2
Properties=species:S:1:pos:R:3:forces:R:3 energy=-7.240767788944807 pbc="F F F"
Nb       0.00000000       0.00000000       0.00000000       0.00000000       0.00000000       1.18514764
Nb       0.00000000       0.00000000       3.43737374       0.00000000       0.00000000      -1.18514764
2
Properties=species:S:1:pos:R:3:forces:R:3 energy=-7.172903718145951 pbc="F F F"
Nb       0.00000000       0.00000000       0.00000000       0.00000000       0.00000000       1.09363437
Nb       0.00000000       0.00000000       3.49696970       0.00000000       0.00000000      -1.09363437
2
Properties=species:S:1:pos:R:3:forces:R:3 energy=-7.110238854871335 pbc="F F F"
Nb       0.00000000       0.00000000       0.00000000       0.00000000       0.00000000       1.01090348
Nb       0.00000000       0.00000000       3.55656566       0.00000000       0.00000000      -1.01090348
2
Properties=species:S:1:pos:R:3:forces:R:3 energy=-7.052223551735032 pbc="F F F"
Nb       0.00000000       0.00000000       0.00000000       0.00000000       0.00000000       0.93766391
Nb       0.00000000       0.00000000       3.61616162       0.00000000       0.00000000      -0.93766391
2
Properties=species:S:1:pos:R:3:forces:R:3 energy=-6.998289399648503 pbc="F F F"
Nb       0.00000000       0.00000000       0.00000000       0.00000000       0.00000000       0.87388080
Nb       0.00000000       0.00000000       3.67575758       0.00000000       0.00000000      -0.87388080
2
Properties=species:S:1:pos:R:3:forces:R:3 energy=-6.9478879305424375 pbc="F F F"
Nb       0.00000000       0.00000000       0.00000000       0.00000000       0.00000000       0.81894648
Nb       0.00000000       0.00000000       3.73535354       0.00000000       0.00000000      -0.81894648
2
Properties=species:S:1:pos:R:3:forces:R:3 energy=-6.9005243014882165 pbc="F F F"
Nb       0.00000000       0.00000000       0.00000000       0.00000000       0.00000000       0.77171177
Nb       0.00000000       0.00000000       3.79494949       0.00000000       0.00000000      -0.77171177
2
Properties=species:S:1:pos:R:3:forces:R:3 energy=-6.855784735201788 pbc="F F F"
Nb       0.00000000       0.00000000       0.00000000       0.00000000       0.00000000       0.73059481
Nb       0.00000000       0.00000000       3.85454545       0.00000000       0.00000000      -0.73059481
2
Properties=species:S:1:pos:R:3:forces:R:3 energy=-6.813356898672723 pbc="F F F"
Nb       0.00000000       0.00000000       0.00000000       0.00000000       0.00000000       0.69384241
Nb       0.00000000       0.00000000       3.91414141       0.00000000       0.00000000      -0.69384241
2
Properties=species:S:1:pos:R:3:forces:R:3 energy=-6.773029730437976 pbc="F F F"
Nb       0.00000000       0.00000000       0.00000000       0.00000000       0.00000000       0.65983188
Nb       0.00000000       0.00000000       3.97373737       0.00000000       0.00000000      -0.65983188
2
Properties=species:S:1:pos:R:3:forces:R:3 energy=-6.734679954429096 pbc="F F F"
Nb       0.00000000       0.00000000       0.00000000       0.00000000       0.00000000       0.62735254
Nb       0.00000000       0.00000000       4.03333333       0.00000000       0.00000000      -0.62735254
2
Properties=species:S:1:pos:R:3:forces:R:3 energy=-6.69823885342661 pbc="F F F"
Nb       0.00000000       0.00000000       0.00000000       0.00000000       0.00000000       0.59566694
Nb       0.00000000       0.00000000       4.09292929       0.00000000       0.00000000      -0.59566694
2
Properties=species:S:1:pos:R:3:forces:R:3 energy=-6.663671568657254 pbc="F F F"
Nb       0.00000000       0.00000000       0.00000000       0.00000000       0.00000000       0.56446314
Nb       0.00000000       0.00000000       4.15252525       0.00000000       0.00000000      -0.56446314
2
Properties=species:S:1:pos:R:3:forces:R:3 energy=-6.630951800418166 pbc="F F F"
Nb       0.00000000       0.00000000       0.00000000       0.00000000       0.00000000       0.53367394
Nb       0.00000000       0.00000000       4.21212121       0.00000000       0.00000000      -0.53367394
2
Properties=species:S:1:pos:R:3:forces:R:3 energy=-6.600053321706546 pbc="F F F"
Nb       0.00000000       0.00000000       0.00000000       0.00000000       0.00000000       0.50330710
Nb       0.00000000       0.00000000       4.27171717       0.00000000       0.00000000      -0.50330710
2
Properties=species:S:1:pos:R:3:forces:R:3 energy=-6.570954001993181 pbc="F F F"
Nb       0.00000000       0.00000000       0.00000000       0.00000000       0.00000000       0.47332808
Nb       0.00000000       0.00000000       4.33131313       0.00000000       0.00000000      -0.47332808
2
Properties=species:S:1:pos:R:3:forces:R:3 energy=-6.543631401646422 pbc="F F F"
Nb       0.00000000       0.00000000       0.00000000       0.00000000       0.00000000       0.44361895
Nb       0.00000000       0.00000000       4.39090909       0.00000000       0.00000000      -0.44361895
2
Properties=species:S:1:pos:R:3:forces:R:3 energy=-6.518075500815642 pbc="F F F"
Nb       0.00000000       0.00000000       0.00000000       0.00000000       0.00000000       0.41401851
Nb       0.00000000       0.00000000       4.45050505       0.00000000       0.00000000      -0.41401851
2
Properties=species:S:1:pos:R:3:forces:R:3 energy=-6.494284897405252 pbc="F F F"
Nb       0.00000000       0.00000000       0.00000000       0.00000000       0.00000000       0.38437143
Nb       0.00000000       0.00000000       4.51010101       0.00000000       0.00000000      -0.38437143
2
Properties=species:S:1:pos:R:3:forces:R:3 energy=-6.47226400473639 pbc="F F F"
Nb       0.00000000       0.00000000       0.00000000       0.00000000       0.00000000       0.35459223
Nb       0.00000000       0.00000000       4.56969697       0.00000000       0.00000000      -0.35459223
2
Properties=species:S:1:pos:R:3:forces:R:3 energy=-6.452022256263714 pbc="F F F"
Nb       0.00000000       0.00000000       0.00000000       0.00000000       0.00000000       0.32468820
Nb       0.00000000       0.00000000       4.62929293       0.00000000       0.00000000      -0.32468820
2
Properties=species:S:1:pos:R:3:forces:R:3 energy=-6.433564608509935 pbc="F F F"
Nb       0.00000000       0.00000000       0.00000000       0.00000000       0.00000000       0.29476535
Nb       0.00000000       0.00000000       4.68888889       0.00000000       0.00000000      -0.29476535
2
Properties=species:S:1:pos:R:3:forces:R:3 energy=-6.416885793677348 pbc="F F F"
Nb       0.00000000       0.00000000       0.00000000       0.00000000       0.00000000       0.26500416
Nb       0.00000000       0.00000000       4.74848485       0.00000000       0.00000000      -0.26500416
2
Properties=species:S:1:pos:R:3:forces:R:3 energy=-6.40196985714579 pbc="F F F"
Nb       0.00000000       0.00000000       0.00000000       0.00000000       0.00000000       0.23566431
Nb       0.00000000       0.00000000       4.80808081       0.00000000       0.00000000      -0.23566431
2
Properties=species:S:1:pos:R:3:forces:R:3 energy=-6.388781675774107 pbc="F F F"
Nb       0.00000000       0.00000000       0.00000000       0.00000000       0.00000000       0.20707124
Nb       0.00000000       0.00000000       4.86767677       0.00000000       0.00000000      -0.20707124
2
Properties=species:S:1:pos:R:3:forces:R:3 energy=-6.377264714762373 pbc="F F F"
Nb       0.00000000       0.00000000       0.00000000       0.00000000       0.00000000       0.17967024
Nb       0.00000000       0.00000000       4.92727273       0.00000000       0.00000000      -0.17967024
2
Properties=species:S:1:pos:R:3:forces:R:3 energy=-6.367331275496817 pbc="F F F"
Nb       0.00000000       0.00000000       0.00000000       0.00000000       0.00000000       0.15404147
Nb       0.00000000       0.00000000       4.98686869       0.00000000       0.00000000      -0.15404147
2
Properties=species:S:1:pos:R:3:forces:R:3 energy=-6.358855845172189 pbc="F F F"
Nb       0.00000000       0.00000000       0.00000000       0.00000000       0.00000000       0.13088940
Nb       0.00000000       0.00000000       5.04646465       0.00000000       0.00000000      -0.13088940
2
Properties=species:S:1:pos:R:3:forces:R:3 energy=-6.351667093594213 pbc="F F F"
Nb       0.00000000       0.00000000       0.00000000       0.00000000       0.00000000       0.11094287
Nb       0.00000000       0.00000000       5.10606061       0.00000000       0.00000000      -0.11094287
2
Properties=species:S:1:pos:R:3:forces:R:3 energy=-6.345556156809315 pbc="F F F"
Nb       0.00000000       0.00000000       0.00000000       0.00000000       0.00000000       0.09476767
Nb       0.00000000       0.00000000       5.16565657       0.00000000       0.00000000      -0.09476767
2
Properties=species:S:1:pos:R:3:forces:R:3 energy=-6.340293613172995 pbc="F F F"
Nb       0.00000000       0.00000000       0.00000000       0.00000000       0.00000000       0.08246323
Nb       0.00000000       0.00000000       5.22525253       0.00000000       0.00000000      -0.08246323
2
Properties=species:S:1:pos:R:3:forces:R:3 energy=-6.335664693271796 pbc="F F F"
Nb       0.00000000       0.00000000       0.00000000       0.00000000       0.00000000       0.07329742
Nb       0.00000000       0.00000000       5.28484848       0.00000000       0.00000000      -0.07329742
2
Properties=species:S:1:pos:R:3:forces:R:3 energy=-6.3315256829243305 pbc="F F F"
Nb       0.00000000       0.00000000       0.00000000       0.00000000       0.00000000       0.06571755
Nb       0.00000000       0.00000000       5.34444444       0.00000000       0.00000000      -0.06571755
2
Properties=species:S:1:pos:R:3:forces:R:3 energy=-6.327819074264384 pbc="F F F"
Nb       0.00000000       0.00000000       0.00000000       0.00000000       0.00000000       0.05889090
Nb       0.00000000       0.00000000       5.40404040       0.00000000       0.00000000      -0.05889090
2
Properties=species:S:1:pos:R:3:forces:R:3 energy=-6.324445413754782 pbc="F F F"
Nb       0.00000000       0.00000000       0.00000000       0.00000000       0.00000000       0.05514415
Nb       0.00000000       0.00000000       5.46363636       0.00000000       0.00000000      -0.05514415
2
Properties=species:S:1:pos:R:3:forces:R:3 energy=-6.321150313955651 pbc="F F F"
Nb       0.00000000       0.00000000       0.00000000       0.00000000       0.00000000       0.05591438
Nb       0.00000000       0.00000000       5.52323232       0.00000000       0.00000000      -0.05591438
2
Properties=species:S:1:pos:R:3:forces:R:3 energy=-6.31779732475615 pbc="F F F"
Nb       0.00000000       0.00000000       0.00000000       0.00000000       0.00000000       0.05603135
Nb       0.00000000       0.00000000       5.58282828       0.00000000       0.00000000      -0.05603135
2
Properties=species:S:1:pos:R:3:forces:R:3 energy=-6.3145357262011785 pbc="F F F"
Nb       0.00000000       0.00000000       0.00000000       0.00000000       0.00000000       0.05323575
Nb       0.00000000       0.00000000       5.64242424       0.00000000       0.00000000      -0.05323575
2
Properties=species:S:1:pos:R:3:forces:R:3 energy=-6.311392590302805 pbc="F F F"
Nb       0.00000000       0.00000000       0.00000000       0.00000000       0.00000000       0.05351593
Nb       0.00000000       0.00000000       5.70202020       0.00000000       0.00000000      -0.05351593
2
Properties=species:S:1:pos:R:3:forces:R:3 energy=-6.307950938133222 pbc="F F F"
Nb       0.00000000       0.00000000       0.00000000       0.00000000       0.00000000       0.06346067
Nb       0.00000000       0.00000000       5.76161616       0.00000000       0.00000000      -0.06346067
2
Properties=species:S:1:pos:R:3:forces:R:3 energy=-6.303867603985494 pbc="F F F"
Nb       0.00000000       0.00000000       0.00000000       0.00000000       0.00000000       0.07100300
Nb       0.00000000       0.00000000       5.82121212       0.00000000       0.00000000      -0.07100300
2
Properties=species:S:1:pos:R:3:forces:R:3 energy=-6.299930573422622 pbc="F F F"
Nb       0.00000000       0.00000000       0.00000000       0.00000000       0.00000000       0.05797739
Nb       0.00000000       0.00000000       5.88080808       0.00000000       0.00000000      -0.05797739
2
Properties=species:S:1:pos:R:3:forces:R:3 energy=-6.297143440094683 pbc="F F F"
Nb       0.00000000       0.00000000       0.00000000       0.00000000       0.00000000       0.03553584
Nb       0.00000000       0.00000000       5.94040404       0.00000000       0.00000000      -0.03553584
2
Properties=species:S:1:pos:R:3:forces:R:3 energy=-6.295444741509136 pbc="F F F"
Nb       0.00000000       0.00000000       0.00000000       0.00000000       0.00000000       0.02468648
Nb       0.00000000       0.00000000       6.00000000       0.00000000       0.00000000      -0.02468648
