2
Properties=species:S:1:pos:R:3:forces:R:3 energy=86859.27791661753 pbc="F F F"
Os       0.00000000       0.00000000       0.00000000       0.00000000       0.00000000 -2051861.87500000
Os       0.00000000       0.00000000       0.10000000       0.00000000       0.00000000 2051861.87500000
2
Properties=species:S:1:pos:R:3:forces:R:3 energy=28026.002525992524 pbc="F F F"
Os       0.00000000       0.00000000       0.00000000       0.00000000       0.00000000 -421177.87500000
Os       0.00000000       0.00000000       0.15959596       0.00000000       0.00000000  421177.87500000
2
Properties=species:S:1:pos:R:3:forces:R:3 energy=13736.890221305026 pbc="F F F"
Os       0.00000000       0.00000000       0.00000000       0.00000000       0.00000000 -126919.51562500
Os       0.00000000       0.00000000       0.21919192       0.00000000       0.00000000  126919.51562500
2
Properties=species:S:1:pos:R:3:forces:R:3 energy=8964.560143180026 pbc="F F F"
Os       0.00000000       0.00000000       0.00000000       0.00000000       0.00000000  -48469.64453125
Os       0.00000000       0.00000000       0.27878788       0.00000000       0.00000000   48469.64453125
2
Properties=species:S:1:pos:R:3:forces:R:3 energy=6952.6289908426115 pbc="F F F"
Os       0.00000000       0.00000000       0.00000000       0.00000000       0.00000000  -23616.65429688
Os       0.00000000       0.00000000       0.33838384       0.00000000       0.00000000   23616.65429688
2
Properties=species:S:1:pos:R:3:forces:R:3 energy=5818.4380728738615 pbc="F F F"
Os       0.00000000       0.00000000       0.00000000       0.00000000       0.00000000  -16086.39257812
Os       0.00000000       0.00000000       0.39797980       0.00000000       0.00000000   16086.39257812
2
Properties=species:S:1:pos:R:3:forces:R:3 energy=4907.919518192697 pbc="F F F"
Os       0.00000000       0.00000000       0.00000000       0.00000000       0.00000000  -17216.01171875
Os       0.00000000       0.00000000       0.45757576       0.00000000       0.00000000   17216.01171875
2
Properties=species:S:1:pos:R:3:forces:R:3 energy=3880.253746720993 pbc="F F F"
Os       0.00000000       0.00000000       0.00000000       0.00000000       0.00000000  -17348.16015625
Os       0.00000000       0.00000000       0.51717172       0.00000000       0.00000000   17348.16015625
2
Properties=species:S:1:pos:R:3:forces:R:3 energy=2836.9829947932108 pbc="F F F"
Os       0.00000000       0.00000000       0.00000000       0.00000000       0.00000000  -16864.87500000
Os       0.00000000       0.00000000       0.57676768       0.00000000       0.00000000   16864.87500000
2
Properties=species:S:1:pos:R:3:forces:R:3 energy=1930.6853874061817 pbc="F F F"
Os       0.00000000       0.00000000       0.00000000       0.00000000       0.00000000  -12183.33105469
Os       0.00000000       0.00000000       0.63636364       0.00000000       0.00000000   12183.33105469
2
Properties=species:S:1:pos:R:3:forces:R:3 energy=1485.9229362976632 pbc="F F F"
Os       0.00000000       0.00000000       0.00000000       0.00000000       0.00000000   -6755.60253906
Os       0.00000000       0.00000000       0.69595960       0.00000000       0.00000000    6755.60253906
2
Properties=species:S:1:pos:R:3:forces:R:3 energy=1115.720299673948 pbc="F F F"
Os       0.00000000       0.00000000       0.00000000       0.00000000       0.00000000   -5615.83349609
Os       0.00000000       0.00000000       0.75555556       0.00000000       0.00000000    5615.83349609
2
Properties=species:S:1:pos:R:3:forces:R:3 energy=829.0686274532186 pbc="F F F"
Os       0.00000000       0.00000000       0.00000000       0.00000000       0.00000000   -3886.42163086
Os       0.00000000       0.00000000       0.81515152       0.00000000       0.00000000    3886.42163086
2
Properties=species:S:1:pos:R:3:forces:R:3 energy=648.4712155465842 pbc="F F F"
Os       0.00000000       0.00000000       0.00000000       0.00000000       0.00000000   -2614.39038086
Os       0.00000000       0.00000000       0.87474747       0.00000000       0.00000000    2614.39038086
2
Properties=species:S:1:pos:R:3:forces:R:3 energy=504.6868835626332 pbc="F F F"
Os       0.00000000       0.00000000       0.00000000       0.00000000       0.00000000   -2225.40991211
Os       0.00000000       0.00000000       0.93434343       0.00000000       0.00000000    2225.40991211
2
Properties=species:S:1:pos:R:3:forces:R:3 energy=383.3821659473685 pbc="F F F"
Os       0.00000000       0.00000000       0.00000000       0.00000000       0.00000000   -1842.15161133
Os       0.00000000       0.00000000       0.99393939       0.00000000       0.00000000    1842.15161133
2
Properties=species:S:1:pos:R:3:forces:R:3 energy=283.48424779106205 pbc="F F F"
Os       0.00000000       0.00000000       0.00000000       0.00000000       0.00000000   -1485.91308594
Os       0.00000000       0.00000000       1.05353535       0.00000000       0.00000000    1485.91308594
2
Properties=species:S:1:pos:R:3:forces:R:3 energy=208.475184798958 pbc="F F F"
Os       0.00000000       0.00000000       0.00000000       0.00000000       0.00000000   -1064.60009766
Os       0.00000000       0.00000000       1.11313131       0.00000000       0.00000000    1064.60009766
2
Properties=species:S:1:pos:R:3:forces:R:3 energy=154.37441671267155 pbc="F F F"
Os       0.00000000       0.00000000       0.00000000       0.00000000       0.00000000    -761.05029297
Os       0.00000000       0.00000000       1.17272727       0.00000000       0.00000000     761.05029297
2
Properties=species:S:1:pos:R:3:forces:R:3 energy=115.10474938485973 pbc="F F F"
Os       0.00000000       0.00000000       0.00000000       0.00000000       0.00000000    -575.54168701
Os       0.00000000       0.00000000       1.23232323       0.00000000       0.00000000     575.54168701
2
Properties=species:S:1:pos:R:3:forces:R:3 energy=84.35620057273867 pbc="F F F"
Os       0.00000000       0.00000000       0.00000000       0.00000000       0.00000000    -466.91867065
Os       0.00000000       0.00000000       1.29191919       0.00000000       0.00000000     466.91867065
2
Properties=species:S:1:pos:R:3:forces:R:3 energy=59.117379669468775 pbc="F F F"
Os       0.00000000       0.00000000       0.00000000       0.00000000       0.00000000    -376.38162231
Os       0.00000000       0.00000000       1.35151515       0.00000000       0.00000000     376.38162231
2
Properties=species:S:1:pos:R:3:forces:R:3 energy=39.72135561774094 pbc="F F F"
Os       0.00000000       0.00000000       0.00000000       0.00000000       0.00000000    -276.11642456
Os       0.00000000       0.00000000       1.41111111       0.00000000       0.00000000     276.11642456
2
Properties=species:S:1:pos:R:3:forces:R:3 energy=25.661330734733795 pbc="F F F"
Os       0.00000000       0.00000000       0.00000000       0.00000000       0.00000000    -200.81153870
Os       0.00000000       0.00000000       1.47070707       0.00000000       0.00000000     200.81153870
2
Properties=species:S:1:pos:R:3:forces:R:3 energy=15.363719614731547 pbc="F F F"
Os       0.00000000       0.00000000       0.00000000       0.00000000       0.00000000    -147.28625488
Os       0.00000000       0.00000000       1.53030303       0.00000000       0.00000000     147.28625488
2
Properties=species:S:1:pos:R:3:forces:R:3 energy=7.820237853674337 pbc="F F F"
Os       0.00000000       0.00000000       0.00000000       0.00000000       0.00000000    -108.14419556
Os       0.00000000       0.00000000       1.58989899       0.00000000       0.00000000     108.14419556
2
Properties=species:S:1:pos:R:3:forces:R:3 energy=2.249199739608983 pbc="F F F"
Os       0.00000000       0.00000000       0.00000000       0.00000000       0.00000000     -80.25389862
Os       0.00000000       0.00000000       1.64949495       0.00000000       0.00000000      80.25389862
2
Properties=species:S:1:pos:R:3:forces:R:3 energy=-1.8754095996607856 pbc="F F F"
Os       0.00000000       0.00000000       0.00000000       0.00000000       0.00000000     -59.01168060
Os       0.00000000       0.00000000       1.70909091       0.00000000       0.00000000      59.01168060
2
Properties=species:S:1:pos:R:3:forces:R:3 energy=-4.8709859882865105 pbc="F F F"
Os       0.00000000       0.00000000       0.00000000       0.00000000       0.00000000     -42.17530060
Os       0.00000000       0.00000000       1.76868687       0.00000000       0.00000000      42.17530060
2
Properties=species:S:1:pos:R:3:forces:R:3 energy=-6.977329126184624 pbc="F F F"
Os       0.00000000       0.00000000       0.00000000       0.00000000       0.00000000     -29.11479568
Os       0.00000000       0.00000000       1.82828283       0.00000000       0.00000000      29.11479568
2
Properties=species:S:1:pos:R:3:forces:R:3 energy=-8.407994711317302 pbc="F F F"
Os       0.00000000       0.00000000       0.00000000       0.00000000       0.00000000     -19.40226746
Os       0.00000000       0.00000000       1.88787879       0.00000000       0.00000000      19.40226746
2
Properties=species:S:1:pos:R:3:forces:R:3 energy=-9.342318838377693 pbc="F F F"
Os       0.00000000       0.00000000       0.00000000       0.00000000       0.00000000     -12.32806015
Os       0.00000000       0.00000000       1.94747475       0.00000000       0.00000000      12.32806015
2
Properties=species:S:1:pos:R:3:forces:R:3 energy=-9.915384876815706 pbc="F F F"
Os       0.00000000       0.00000000       0.00000000       0.00000000       0.00000000      -7.17290115
Os       0.00000000       0.00000000       2.00707071       0.00000000       0.00000000       7.17290115
2
Properties=species:S:1:pos:R:3:forces:R:3 energy=-10.224648231169535 pbc="F F F"
Os       0.00000000       0.00000000       0.00000000       0.00000000       0.00000000      -3.40162086
Os       0.00000000       0.00000000       2.06666667       0.00000000       0.00000000       3.40162086
2
Properties=species:S:1:pos:R:3:forces:R:3 energy=-10.340968109608857 pbc="F F F"
Os       0.00000000       0.00000000       0.00000000       0.00000000       0.00000000      -0.64784223
Os       0.00000000       0.00000000       2.12626263       0.00000000       0.00000000       0.64784223
2
Properties=species:S:1:pos:R:3:forces:R:3 energy=-10.31706783790069 pbc="F F F"
Os       0.00000000       0.00000000       0.00000000       0.00000000       0.00000000       1.33800209
Os       0.00000000       0.00000000       2.18585859       0.00000000       0.00000000      -1.33800209
2
Properties=species:S:1:pos:R:3:forces:R:3 energy=-10.193352934654465 pbc="F F F"
Os       0.00000000       0.00000000       0.00000000       0.00000000       0.00000000       2.72477865
Os       0.00000000       0.00000000       2.24545455       0.00000000       0.00000000      -2.72477865
2
Properties=species:S:1:pos:R:3:forces:R:3 energy=-10.00186652108311 pbc="F F F"
Os       0.00000000       0.00000000       0.00000000       0.00000000       0.00000000       3.62895727
Os       0.00000000       0.00000000       2.30505051       0.00000000       0.00000000      -3.62895727
2
Properties=species:S:1:pos:R:3:forces:R:3 energy=-9.768597050650424 pbc="F F F"
Os       0.00000000       0.00000000       0.00000000       0.00000000       0.00000000       4.14126062
Os       0.00000000       0.00000000       2.36464646       0.00000000       0.00000000      -4.14126062
2
Properties=species:S:1:pos:R:3:forces:R:3 energy=-9.514327835522922 pbc="F F F"
Os       0.00000000       0.00000000       0.00000000       0.00000000       0.00000000       4.34838963
Os       0.00000000       0.00000000       2.42424242       0.00000000       0.00000000      -4.34838963
2
Properties=species:S:1:pos:R:3:forces:R:3 energy=-9.254554240352265 pbc="F F F"
Os       0.00000000       0.00000000       0.00000000       0.00000000       0.00000000       4.34141588
Os       0.00000000       0.00000000       2.48383838       0.00000000       0.00000000      -4.34141588
2
Properties=species:S:1:pos:R:3:forces:R:3 energy=-8.999365681655116 pbc="F F F"
Os       0.00000000       0.00000000       0.00000000       0.00000000       0.00000000       4.20797396
Os       0.00000000       0.00000000       2.54343434       0.00000000       0.00000000      -4.20797396
2
Properties=species:S:1:pos:R:3:forces:R:3 energy=-8.75410296537134 pbc="F F F"
Os       0.00000000       0.00000000       0.00000000       0.00000000       0.00000000       4.01803684
Os       0.00000000       0.00000000       2.60303030       0.00000000       0.00000000      -4.01803684
2
Properties=species:S:1:pos:R:3:forces:R:3 energy=-8.520661014103384 pbc="F F F"
Os       0.00000000       0.00000000       0.00000000       0.00000000       0.00000000       3.81668282
Os       0.00000000       0.00000000       2.66262626       0.00000000       0.00000000      -3.81668282
2
Properties=species:S:1:pos:R:3:forces:R:3 energy=-8.298920087268327 pbc="F F F"
Os       0.00000000       0.00000000       0.00000000       0.00000000       0.00000000       3.62823749
Os       0.00000000       0.00000000       2.72222222       0.00000000       0.00000000      -3.62823749
2
Properties=species:S:1:pos:R:3:forces:R:3 energy=-8.087712427705554 pbc="F F F"
Os       0.00000000       0.00000000       0.00000000       0.00000000       0.00000000       3.46416593
Os       0.00000000       0.00000000       2.78181818       0.00000000       0.00000000      -3.46416593
2
Properties=species:S:1:pos:R:3:forces:R:3 energy=-7.885561004984628 pbc="F F F"
Os       0.00000000       0.00000000       0.00000000       0.00000000       0.00000000       3.32250309
Os       0.00000000       0.00000000       2.84141414       0.00000000       0.00000000      -3.32250309
2
Properties=species:S:1:pos:R:3:forces:R:3 energy=-7.691592287016621 pbc="F F F"
Os       0.00000000       0.00000000       0.00000000       0.00000000       0.00000000       3.18609905
Os       0.00000000       0.00000000       2.90101010       0.00000000       0.00000000      -3.18609905
2
Properties=species:S:1:pos:R:3:forces:R:3 energy=-7.506058591897446 pbc="F F F"
Os       0.00000000       0.00000000       0.00000000       0.00000000       0.00000000       3.03740573
Os       0.00000000       0.00000000       2.96060606       0.00000000       0.00000000      -3.03740573
2
Properties=species:S:1:pos:R:3:forces:R:3 energy=-7.329934364988027 pbc="F F F"
Os       0.00000000       0.00000000       0.00000000       0.00000000       0.00000000       2.86995673
Os       0.00000000       0.00000000       3.02020202       0.00000000       0.00000000      -2.86995673
2
Properties=species:S:1:pos:R:3:forces:R:3 energy=-7.164328636763499 pbc="F F F"
Os       0.00000000       0.00000000       0.00000000       0.00000000       0.00000000       2.68519711
Os       0.00000000       0.00000000       3.07979798       0.00000000       0.00000000      -2.68519711
2
Properties=species:S:1:pos:R:3:forces:R:3 energy=-7.010126623267762 pbc="F F F"
Os       0.00000000       0.00000000       0.00000000       0.00000000       0.00000000       2.48819828
Os       0.00000000       0.00000000       3.13939394       0.00000000       0.00000000      -2.48819828
2
Properties=species:S:1:pos:R:3:forces:R:3 energy=-6.86786077683841 pbc="F F F"
Os       0.00000000       0.00000000       0.00000000       0.00000000       0.00000000       2.28583527
Os       0.00000000       0.00000000       3.19898990       0.00000000       0.00000000      -2.28583527
2
Properties=species:S:1:pos:R:3:forces:R:3 energy=-6.737639440626301 pbc="F F F"
Os       0.00000000       0.00000000       0.00000000       0.00000000       0.00000000       2.08514190
Os       0.00000000       0.00000000       3.25858586       0.00000000       0.00000000      -2.08514190
2
Properties=species:S:1:pos:R:3:forces:R:3 energy=-6.619184529549484 pbc="F F F"
Os       0.00000000       0.00000000       0.00000000       0.00000000       0.00000000       1.89165056
Os       0.00000000       0.00000000       3.31818182       0.00000000       0.00000000      -1.89165056
2
Properties=species:S:1:pos:R:3:forces:R:3 energy=-6.5119643544973 pbc="F F F"
Os       0.00000000       0.00000000       0.00000000       0.00000000       0.00000000       1.70843995
Os       0.00000000       0.00000000       3.37777778       0.00000000       0.00000000      -1.70843995
2
Properties=species:S:1:pos:R:3:forces:R:3 energy=-6.415332107527184 pbc="F F F"
Os       0.00000000       0.00000000       0.00000000       0.00000000       0.00000000       1.53629827
Os       0.00000000       0.00000000       3.43737374       0.00000000       0.00000000      -1.53629827
2
Properties=species:S:1:pos:R:3:forces:R:3 energy=-6.3286416999520485 pbc="F F F"
Os       0.00000000       0.00000000       0.00000000       0.00000000       0.00000000       1.37461615
Os       0.00000000       0.00000000       3.49696970       0.00000000       0.00000000      -1.37461615
2
Properties=species:S:1:pos:R:3:forces:R:3 energy=-6.251300944690613 pbc="F F F"
Os       0.00000000       0.00000000       0.00000000       0.00000000       0.00000000       1.22238421
Os       0.00000000       0.00000000       3.55656566       0.00000000       0.00000000      -1.22238421
2
Properties=species:S:1:pos:R:3:forces:R:3 energy=-6.182770195448024 pbc="F F F"
Os       0.00000000       0.00000000       0.00000000       0.00000000       0.00000000       1.07890558
Os       0.00000000       0.00000000       3.61616162       0.00000000       0.00000000      -1.07890558
2
Properties=species:S:1:pos:R:3:forces:R:3 energy=-6.12253379033933 pbc="F F F"
Os       0.00000000       0.00000000       0.00000000       0.00000000       0.00000000       0.94406259
Os       0.00000000       0.00000000       3.67575758       0.00000000       0.00000000      -0.94406259
2
Properties=species:S:1:pos:R:3:forces:R:3 energy=-6.070065773467077 pbc="F F F"
Os       0.00000000       0.00000000       0.00000000       0.00000000       0.00000000       0.81828105
Os       0.00000000       0.00000000       3.73535354       0.00000000       0.00000000      -0.81828105
2
Properties=species:S:1:pos:R:3:forces:R:3 energy=-6.024805649086139 pbc="F F F"
Os       0.00000000       0.00000000       0.00000000       0.00000000       0.00000000       0.70231283
Os       0.00000000       0.00000000       3.79494949       0.00000000       0.00000000      -0.70231283
2
Properties=species:S:1:pos:R:3:forces:R:3 energy=-5.986144531151387 pbc="F F F"
Os       0.00000000       0.00000000       0.00000000       0.00000000       0.00000000       0.59697467
Os       0.00000000       0.00000000       3.85454545       0.00000000       0.00000000      -0.59697467
2
Properties=species:S:1:pos:R:3:forces:R:3 energy=-5.953426697374217 pbc="F F F"
Os       0.00000000       0.00000000       0.00000000       0.00000000       0.00000000       0.50294751
Os       0.00000000       0.00000000       3.91414141       0.00000000       0.00000000      -0.50294751
2
Properties=species:S:1:pos:R:3:forces:R:3 energy=-5.9259634016610345 pbc="F F F"
Os       0.00000000       0.00000000       0.00000000       0.00000000       0.00000000       0.42064637
Os       0.00000000       0.00000000       3.97373737       0.00000000       0.00000000      -0.42064637
2
Properties=species:S:1:pos:R:3:forces:R:3 energy=-5.903053460474426 pbc="F F F"
Os       0.00000000       0.00000000       0.00000000       0.00000000       0.00000000       0.35018164
Os       0.00000000       0.00000000       4.03333333       0.00000000       0.00000000      -0.35018164
2
Properties=species:S:1:pos:R:3:forces:R:3 energy=-5.8839942327590915 pbc="F F F"
Os       0.00000000       0.00000000       0.00000000       0.00000000       0.00000000       0.29132342
Os       0.00000000       0.00000000       4.09292929       0.00000000       0.00000000      -0.29132342
2
Properties=species:S:1:pos:R:3:forces:R:3 energy=-5.86811026184956 pbc="F F F"
Os       0.00000000       0.00000000       0.00000000       0.00000000       0.00000000       0.24350578
Os       0.00000000       0.00000000       4.15252525       0.00000000       0.00000000      -0.24350578
2
Properties=species:S:1:pos:R:3:forces:R:3 energy=-5.854769055445914 pbc="F F F"
Os       0.00000000       0.00000000       0.00000000       0.00000000       0.00000000       0.20581649
Os       0.00000000       0.00000000       4.21212121       0.00000000       0.00000000      -0.20581649
2
Properties=species:S:1:pos:R:3:forces:R:3 energy=-5.843402028434888 pbc="F F F"
Os       0.00000000       0.00000000       0.00000000       0.00000000       0.00000000       0.17699598
Os       0.00000000       0.00000000       4.27171717       0.00000000       0.00000000      -0.17699598
2
Properties=species:S:1:pos:R:3:forces:R:3 energy=-5.833526926907594 pbc="F F F"
Os       0.00000000       0.00000000       0.00000000       0.00000000       0.00000000       0.15549320
Os       0.00000000       0.00000000       4.33131313       0.00000000       0.00000000      -0.15549320
2
Properties=species:S:1:pos:R:3:forces:R:3 energy=-5.824758340751753 pbc="F F F"
Os       0.00000000       0.00000000       0.00000000       0.00000000       0.00000000       0.13954560
Os       0.00000000       0.00000000       4.39090909       0.00000000       0.00000000      -0.13954560
2
Properties=species:S:1:pos:R:3:forces:R:3 energy=-5.816820028557905 pbc="F F F"
Os       0.00000000       0.00000000       0.00000000       0.00000000       0.00000000       0.12732880
Os       0.00000000       0.00000000       4.45050505       0.00000000       0.00000000      -0.12732880
2
Properties=species:S:1:pos:R:3:forces:R:3 energy=-5.809542034421697 pbc="F F F"
Os       0.00000000       0.00000000       0.00000000       0.00000000       0.00000000       0.11712722
Os       0.00000000       0.00000000       4.51010101       0.00000000       0.00000000      -0.11712722
2
Properties=species:S:1:pos:R:3:forces:R:3 energy=-5.802848182471823 pbc="F F F"
Os       0.00000000       0.00000000       0.00000000       0.00000000       0.00000000       0.10750204
Os       0.00000000       0.00000000       4.56969697       0.00000000       0.00000000      -0.10750204
2
Properties=species:S:1:pos:R:3:forces:R:3 energy=-5.796737511899074 pbc="F F F"
Os       0.00000000       0.00000000       0.00000000       0.00000000       0.00000000       0.09742758
Os       0.00000000       0.00000000       4.62929293       0.00000000       0.00000000      -0.09742758
2
Properties=species:S:1:pos:R:3:forces:R:3 energy=-5.791255956662494 pbc="F F F"
Os       0.00000000       0.00000000       0.00000000       0.00000000       0.00000000       0.08635163
Os       0.00000000       0.00000000       4.68888889       0.00000000       0.00000000      -0.08635163
2
Properties=species:S:1:pos:R:3:forces:R:3 energy=-5.786466794256865 pbc="F F F"
Os       0.00000000       0.00000000       0.00000000       0.00000000       0.00000000       0.07419764
Os       0.00000000       0.00000000       4.74848485       0.00000000       0.00000000      -0.07419764
2
Properties=species:S:1:pos:R:3:forces:R:3 energy=-5.782427545285025 pbc="F F F"
Os       0.00000000       0.00000000       0.00000000       0.00000000       0.00000000       0.06129354
Os       0.00000000       0.00000000       4.80808081       0.00000000       0.00000000      -0.06129354
2
Properties=species:S:1:pos:R:3:forces:R:3 energy=-5.779164293943418 pbc="F F F"
Os       0.00000000       0.00000000       0.00000000       0.00000000       0.00000000       0.04824888
Os       0.00000000       0.00000000       4.86767677       0.00000000       0.00000000      -0.04824888
2
Properties=species:S:1:pos:R:3:forces:R:3 energy=-5.77666434222756 pbc="F F F"
Os       0.00000000       0.00000000       0.00000000       0.00000000       0.00000000       0.03580710
Os       0.00000000       0.00000000       4.92727273       0.00000000       0.00000000      -0.03580710
2
Properties=species:S:1:pos:R:3:forces:R:3 energy=-5.774869960363841 pbc="F F F"
Os       0.00000000       0.00000000       0.00000000       0.00000000       0.00000000       0.02466886
Os       0.00000000       0.00000000       4.98686869       0.00000000       0.00000000      -0.02466886
2
Properties=species:S:1:pos:R:3:forces:R:3 energy=-5.77368836554379 pbc="F F F"
Os       0.00000000       0.00000000       0.00000000       0.00000000       0.00000000       0.01532225
Os       0.00000000       0.00000000       5.04646465       0.00000000       0.00000000      -0.01532225
2
Properties=species:S:1:pos:R:3:forces:R:3 energy=-5.773005413985323 pbc="F F F"
Os       0.00000000       0.00000000       0.00000000       0.00000000       0.00000000       0.00790323
Os       0.00000000       0.00000000       5.10606061       0.00000000       0.00000000      -0.00790323
2
Properties=species:S:1:pos:R:3:forces:R:3 energy=-5.772712825000261 pbc="F F F"
Os       0.00000000       0.00000000       0.00000000       0.00000000       0.00000000       0.00216264
Os       0.00000000       0.00000000       5.16565657       0.00000000       0.00000000      -0.00216264
2
Properties=species:S:1:pos:R:3:forces:R:3 energy=-5.772724323765629 pbc="F F F"
Os       0.00000000       0.00000000       0.00000000       0.00000000       0.00000000      -0.00239778
Os       0.00000000       0.00000000       5.22525253       0.00000000       0.00000000       0.00239778
2
Properties=species:S:1:pos:R:3:forces:R:3 energy=-5.772984165787787 pbc="F F F"
Os       0.00000000       0.00000000       0.00000000       0.00000000       0.00000000      -0.00622597
Os       0.00000000       0.00000000       5.28484848       0.00000000       0.00000000       0.00622597
2
Properties=species:S:1:pos:R:3:forces:R:3 energy=-5.773453845650629 pbc="F F F"
Os       0.00000000       0.00000000       0.00000000       0.00000000       0.00000000      -0.00940946
Os       0.00000000       0.00000000       5.34444444       0.00000000       0.00000000       0.00940946
2
Properties=species:S:1:pos:R:3:forces:R:3 energy=-5.774089147059446 pbc="F F F"
Os       0.00000000       0.00000000       0.00000000       0.00000000       0.00000000      -0.01177944
Os       0.00000000       0.00000000       5.40404040       0.00000000       0.00000000       0.01177944
2
Properties=species:S:1:pos:R:3:forces:R:3 energy=-5.774844494563987 pbc="F F F"
Os       0.00000000       0.00000000       0.00000000       0.00000000       0.00000000      -0.01346175
Os       0.00000000       0.00000000       5.46363636       0.00000000       0.00000000       0.01346175
2
Properties=species:S:1:pos:R:3:forces:R:3 energy=-5.775679615023457 pbc="F F F"
Os       0.00000000       0.00000000       0.00000000       0.00000000       0.00000000      -0.01440256
Os       0.00000000       0.00000000       5.52323232       0.00000000       0.00000000       0.01440256
2
Properties=species:S:1:pos:R:3:forces:R:3 energy=-5.776523835008284 pbc="F F F"
Os       0.00000000       0.00000000       0.00000000       0.00000000       0.00000000      -0.01356812
Os       0.00000000       0.00000000       5.58282828       0.00000000       0.00000000       0.01356812
2
Properties=species:S:1:pos:R:3:forces:R:3 energy=-5.77726937498559 pbc="F F F"
Os       0.00000000       0.00000000       0.00000000       0.00000000       0.00000000      -0.01141201
Os       0.00000000       0.00000000       5.64242424       0.00000000       0.00000000       0.01141201
2
Properties=species:S:1:pos:R:3:forces:R:3 energy=-5.777898294125313 pbc="F F F"
Os       0.00000000       0.00000000       0.00000000       0.00000000       0.00000000      -0.00980362
Os       0.00000000       0.00000000       5.70202020       0.00000000       0.00000000       0.00980362
2
Properties=species:S:1:pos:R:3:forces:R:3 energy=-5.7784281197768 pbc="F F F"
Os       0.00000000       0.00000000       0.00000000       0.00000000       0.00000000      -0.00765128
Os       0.00000000       0.00000000       5.76161616       0.00000000       0.00000000       0.00765128
2
Properties=species:S:1:pos:R:3:forces:R:3 energy=-5.7787378335842785 pbc="F F F"
Os       0.00000000       0.00000000       0.00000000       0.00000000       0.00000000      -0.00209296
Os       0.00000000       0.00000000       5.82121212       0.00000000       0.00000000       0.00209296
2
Properties=species:S:1:pos:R:3:forces:R:3 energy=-5.778642332527359 pbc="F F F"
Os       0.00000000       0.00000000       0.00000000       0.00000000       0.00000000       0.00508842
Os       0.00000000       0.00000000       5.88080808       0.00000000       0.00000000      -0.00508842
2
Properties=species:S:1:pos:R:3:forces:R:3 energy=-5.778180421141569 pbc="F F F"
Os       0.00000000       0.00000000       0.00000000       0.00000000       0.00000000       0.00997601
Os       0.00000000       0.00000000       5.94040404       0.00000000       0.00000000      -0.00997601
2
Properties=species:S:1:pos:R:3:forces:R:3 energy=-5.77752714792506 pbc="F F F"
Os       0.00000000       0.00000000       0.00000000       0.00000000       0.00000000       0.01128462
Os       0.00000000       0.00000000       6.00000000       0.00000000       0.00000000      -0.01128462
