2
Properties=species:S:1:pos:R:3:forces:R:3 energy=-2183541.91004893 pbc="F F F"
Pr       0.00000000       0.00000000       0.00000000       0.00000000       0.00000000 -1328115.75000000
Pr       0.00000000       0.00000000       0.10000000       0.00000000       0.00000000 1328115.75000000
2
Properties=species:S:1:pos:R:3:forces:R:3 energy=-2219740.41004893 pbc="F F F"
Pr       0.00000000       0.00000000       0.00000000       0.00000000       0.00000000 -190121.89062500
Pr       0.00000000       0.00000000       0.15959596       0.00000000       0.00000000  190121.89062500
2
Properties=species:S:1:pos:R:3:forces:R:3 energy=-2218617.66004893 pbc="F F F"
Pr       0.00000000       0.00000000       0.00000000       0.00000000       0.00000000  209501.79687500
Pr       0.00000000       0.00000000       0.21919192       0.00000000       0.00000000 -209501.79687500
2
Properties=species:S:1:pos:R:3:forces:R:3 energy=-2193498.16004893 pbc="F F F"
Pr       0.00000000       0.00000000       0.00000000       0.00000000       0.00000000  661701.68750000
Pr       0.00000000       0.00000000       0.27878788       0.00000000       0.00000000 -661701.68750000
2
Properties=species:S:1:pos:R:3:forces:R:3 energy=-2135178.6600489174 pbc="F F F"
Pr       0.00000000       0.00000000       0.00000000       0.00000000       0.00000000 1339362.12500000
Pr       0.00000000       0.00000000       0.33838384       0.00000000       0.00000000 -1339362.12500000
2
Properties=species:S:1:pos:R:3:forces:R:3 energy=-2028265.5350489174 pbc="F F F"
Pr       0.00000000       0.00000000       0.00000000       0.00000000       0.00000000 2295015.50000000
Pr       0.00000000       0.00000000       0.39797980       0.00000000       0.00000000 -2295015.50000000
2
Properties=species:S:1:pos:R:3:forces:R:3 energy=-1856958.0350489174 pbc="F F F"
Pr       0.00000000       0.00000000       0.00000000       0.00000000       0.00000000 3481377.75000000
Pr       0.00000000       0.00000000       0.45757576       0.00000000       0.00000000 -3481377.75000000
2
Properties=species:S:1:pos:R:3:forces:R:3 energy=-1612214.5350489048 pbc="F F F"
Pr       0.00000000       0.00000000       0.00000000       0.00000000       0.00000000 4717349.50000000
Pr       0.00000000       0.00000000       0.51717172       0.00000000       0.00000000 -4717349.50000000
2
Properties=species:S:1:pos:R:3:forces:R:3 energy=-1300062.5350488795 pbc="F F F"
Pr       0.00000000       0.00000000       0.00000000       0.00000000       0.00000000 5680589.50000000
Pr       0.00000000       0.00000000       0.57676768       0.00000000       0.00000000 -5680589.50000000
2
Properties=species:S:1:pos:R:3:forces:R:3 energy=-948256.4725488414 pbc="F F F"
Pr       0.00000000       0.00000000       0.00000000       0.00000000       0.00000000 5988213.50000000
Pr       0.00000000       0.00000000       0.63636364       0.00000000       0.00000000 -5988213.50000000
2
Properties=species:S:1:pos:R:3:forces:R:3 energy=-604560.6600487654 pbc="F F F"
Pr       0.00000000       0.00000000       0.00000000       0.00000000       0.00000000 5390399.50000000
Pr       0.00000000       0.00000000       0.69595960       0.00000000       0.00000000 -5390399.50000000
2
Properties=species:S:1:pos:R:3:forces:R:3 energy=-322350.94129865133 pbc="F F F"
Pr       0.00000000       0.00000000       0.00000000       0.00000000       0.00000000 3982720.50000000
Pr       0.00000000       0.00000000       0.75555556       0.00000000       0.00000000 -3982720.50000000
2
Properties=species:S:1:pos:R:3:forces:R:3 energy=-135015.01942347392 pbc="F F F"
Pr       0.00000000       0.00000000       0.00000000       0.00000000       0.00000000 2310328.00000000
Pr       0.00000000       0.00000000       0.81515152       0.00000000       0.00000000 -2310328.00000000
2
Properties=species:S:1:pos:R:3:forces:R:3 energy=-39183.67957948318 pbc="F F F"
Pr       0.00000000       0.00000000       0.00000000       0.00000000       0.00000000 1025873.81250000
Pr       0.00000000       0.00000000       0.87474747       0.00000000       0.00000000 -1025873.81250000
2
Properties=species:S:1:pos:R:3:forces:R:3 energy=-5855.169325222131 pbc="F F F"
Pr       0.00000000       0.00000000       0.00000000       0.00000000       0.00000000  226820.29687500
Pr       0.00000000       0.00000000       0.93434343       0.00000000       0.00000000 -226820.29687500
2
Properties=species:S:1:pos:R:3:forces:R:3 energy=-331.244764193747 pbc="F F F"
Pr       0.00000000       0.00000000       0.00000000       0.00000000       0.00000000   18651.28515625
Pr       0.00000000       0.00000000       0.99393939       0.00000000       0.00000000  -18651.28515625
2
Properties=species:S:1:pos:R:3:forces:R:3 energy=145.7039211448715 pbc="F F F"
Pr       0.00000000       0.00000000       0.00000000       0.00000000       0.00000000    -146.07044983
Pr       0.00000000       0.00000000       1.05353535       0.00000000       0.00000000     146.07044983
2
Properties=species:S:1:pos:R:3:forces:R:3 energy=144.65706229065077 pbc="F F F"
Pr       0.00000000       0.00000000       0.00000000       0.00000000       0.00000000    -200.11685181
Pr       0.00000000       0.00000000       1.11313131       0.00000000       0.00000000     200.11685181
2
Properties=species:S:1:pos:R:3:forces:R:3 energy=127.63116163663314 pbc="F F F"
Pr       0.00000000       0.00000000       0.00000000       0.00000000       0.00000000    -332.68603516
Pr       0.00000000       0.00000000       1.17272727       0.00000000       0.00000000     332.68603516
2
Properties=species:S:1:pos:R:3:forces:R:3 energy=108.26573802198192 pbc="F F F"
Pr       0.00000000       0.00000000       0.00000000       0.00000000       0.00000000    -300.92553711
Pr       0.00000000       0.00000000       1.23232323       0.00000000       0.00000000     300.92553711
2
Properties=species:S:1:pos:R:3:forces:R:3 energy=91.99932149098653 pbc="F F F"
Pr       0.00000000       0.00000000       0.00000000       0.00000000       0.00000000    -247.13796997
Pr       0.00000000       0.00000000       1.29191919       0.00000000       0.00000000     247.13796997
2
Properties=species:S:1:pos:R:3:forces:R:3 energy=78.32818134574894 pbc="F F F"
Pr       0.00000000       0.00000000       0.00000000       0.00000000       0.00000000    -215.64367676
Pr       0.00000000       0.00000000       1.35151515       0.00000000       0.00000000     215.64367676
2
Properties=species:S:1:pos:R:3:forces:R:3 energy=65.99719837658027 pbc="F F F"
Pr       0.00000000       0.00000000       0.00000000       0.00000000       0.00000000    -199.28436279
Pr       0.00000000       0.00000000       1.41111111       0.00000000       0.00000000     199.28436279
2
Properties=species:S:1:pos:R:3:forces:R:3 energy=54.558031365907084 pbc="F F F"
Pr       0.00000000       0.00000000       0.00000000       0.00000000       0.00000000    -184.05421448
Pr       0.00000000       0.00000000       1.47070707       0.00000000       0.00000000     184.05421448
2
Properties=species:S:1:pos:R:3:forces:R:3 energy=44.16382144949949 pbc="F F F"
Pr       0.00000000       0.00000000       0.00000000       0.00000000       0.00000000    -163.81356812
Pr       0.00000000       0.00000000       1.53030303       0.00000000       0.00000000     163.81356812
2
Properties=species:S:1:pos:R:3:forces:R:3 energy=35.114438354780326 pbc="F F F"
Pr       0.00000000       0.00000000       0.00000000       0.00000000       0.00000000    -139.63496399
Pr       0.00000000       0.00000000       1.58989899       0.00000000       0.00000000     139.63496399
2
Properties=species:S:1:pos:R:3:forces:R:3 energy=27.49419660546112 pbc="F F F"
Pr       0.00000000       0.00000000       0.00000000       0.00000000       0.00000000    -116.61167145
Pr       0.00000000       0.00000000       1.64949495       0.00000000       0.00000000     116.61167145
2
Properties=species:S:1:pos:R:3:forces:R:3 energy=21.159684793272522 pbc="F F F"
Pr       0.00000000       0.00000000       0.00000000       0.00000000       0.00000000     -96.25002289
Pr       0.00000000       0.00000000       1.70909091       0.00000000       0.00000000      96.25002289
2
Properties=species:S:1:pos:R:3:forces:R:3 energy=15.999260308773312 pbc="F F F"
Pr       0.00000000       0.00000000       0.00000000       0.00000000       0.00000000     -77.20718384
Pr       0.00000000       0.00000000       1.76868687       0.00000000       0.00000000      77.20718384
2
Properties=species:S:1:pos:R:3:forces:R:3 energy=11.896916617549419 pbc="F F F"
Pr       0.00000000       0.00000000       0.00000000       0.00000000       0.00000000     -61.15418625
Pr       0.00000000       0.00000000       1.82828283       0.00000000       0.00000000      61.15418625
2
Properties=species:S:1:pos:R:3:forces:R:3 energy=8.627260703081104 pbc="F F F"
Pr       0.00000000       0.00000000       0.00000000       0.00000000       0.00000000     -49.17685699
Pr       0.00000000       0.00000000       1.88787879       0.00000000       0.00000000      49.17685699
2
Properties=species:S:1:pos:R:3:forces:R:3 energy=5.979871383312202 pbc="F F F"
Pr       0.00000000       0.00000000       0.00000000       0.00000000       0.00000000     -40.01435089
Pr       0.00000000       0.00000000       1.94747475       0.00000000       0.00000000      40.01435089
2
Properties=species:S:1:pos:R:3:forces:R:3 energy=3.825485398931295 pbc="F F F"
Pr       0.00000000       0.00000000       0.00000000       0.00000000       0.00000000     -32.50593185
Pr       0.00000000       0.00000000       2.00707071       0.00000000       0.00000000      32.50593185
2
Properties=species:S:1:pos:R:3:forces:R:3 energy=2.082665116187002 pbc="F F F"
Pr       0.00000000       0.00000000       0.00000000       0.00000000       0.00000000     -26.15215683
Pr       0.00000000       0.00000000       2.06666667       0.00000000       0.00000000      26.15215683
2
Properties=species:S:1:pos:R:3:forces:R:3 energy=0.6897603142522026 pbc="F F F"
Pr       0.00000000       0.00000000       0.00000000       0.00000000       0.00000000     -20.73780251
Pr       0.00000000       0.00000000       2.12626263       0.00000000       0.00000000      20.73780251
2
Properties=species:S:1:pos:R:3:forces:R:3 energy=-0.40539055122242573 pbc="F F F"
Pr       0.00000000       0.00000000       0.00000000       0.00000000       0.00000000     -16.14323807
Pr       0.00000000       0.00000000       2.18585859       0.00000000       0.00000000      16.14323807
2
Properties=species:S:1:pos:R:3:forces:R:3 energy=-1.248832984482207 pbc="F F F"
Pr       0.00000000       0.00000000       0.00000000       0.00000000       0.00000000     -12.27715111
Pr       0.00000000       0.00000000       2.24545455       0.00000000       0.00000000      12.27715111
2
Properties=species:S:1:pos:R:3:forces:R:3 energy=-1.881899763586077 pbc="F F F"
Pr       0.00000000       0.00000000       0.00000000       0.00000000       0.00000000      -9.07439041
Pr       0.00000000       0.00000000       2.30505051       0.00000000       0.00000000       9.07439041
2
Properties=species:S:1:pos:R:3:forces:R:3 energy=-2.3425557023881396 pbc="F F F"
Pr       0.00000000       0.00000000       0.00000000       0.00000000       0.00000000      -6.48165274
Pr       0.00000000       0.00000000       2.36464646       0.00000000       0.00000000       6.48165274
2
Properties=species:S:1:pos:R:3:forces:R:3 energy=-2.665341490291 pbc="F F F"
Pr       0.00000000       0.00000000       0.00000000       0.00000000       0.00000000      -4.43692493
Pr       0.00000000       0.00000000       2.42424242       0.00000000       0.00000000       4.43692493
2
Properties=species:S:1:pos:R:3:forces:R:3 energy=-2.881103870938357 pbc="F F F"
Pr       0.00000000       0.00000000       0.00000000       0.00000000       0.00000000      -2.88082862
Pr       0.00000000       0.00000000       2.48383838       0.00000000       0.00000000       2.88082862
2
Properties=species:S:1:pos:R:3:forces:R:3 energy=-3.0172850645310523 pbc="F F F"
Pr       0.00000000       0.00000000       0.00000000       0.00000000       0.00000000      -1.75535190
Pr       0.00000000       0.00000000       2.54343434       0.00000000       0.00000000       1.75535190
2
Properties=species:S:1:pos:R:3:forces:R:3 energy=-3.097337267649641 pbc="F F F"
Pr       0.00000000       0.00000000       0.00000000       0.00000000       0.00000000      -0.98198450
Pr       0.00000000       0.00000000       2.60303030       0.00000000       0.00000000       0.98198450
2
Properties=species:S:1:pos:R:3:forces:R:3 energy=-3.139418201851688 pbc="F F F"
Pr       0.00000000       0.00000000       0.00000000       0.00000000       0.00000000      -0.46510348
Pr       0.00000000       0.00000000       2.66262626       0.00000000       0.00000000       0.46510348
2
Properties=species:S:1:pos:R:3:forces:R:3 energy=-3.1561490324508594 pbc="F F F"
Pr       0.00000000       0.00000000       0.00000000       0.00000000       0.00000000      -0.11910621
Pr       0.00000000       0.00000000       2.72222222       0.00000000       0.00000000       0.11910621
2
Properties=species:S:1:pos:R:3:forces:R:3 energy=-3.1558079022592938 pbc="F F F"
Pr       0.00000000       0.00000000       0.00000000       0.00000000       0.00000000       0.11569418
Pr       0.00000000       0.00000000       2.78181818       0.00000000       0.00000000      -0.11569418
2
Properties=species:S:1:pos:R:3:forces:R:3 energy=-3.143818117351678 pbc="F F F"
Pr       0.00000000       0.00000000       0.00000000       0.00000000       0.00000000       0.27662802
Pr       0.00000000       0.00000000       2.84141414       0.00000000       0.00000000      -0.27662802
2
Properties=species:S:1:pos:R:3:forces:R:3 energy=-3.123801315620967 pbc="F F F"
Pr       0.00000000       0.00000000       0.00000000       0.00000000       0.00000000       0.38876021
Pr       0.00000000       0.00000000       2.90101010       0.00000000       0.00000000      -0.38876021
2
Properties=species:S:1:pos:R:3:forces:R:3 energy=-3.0980477802718362 pbc="F F F"
Pr       0.00000000       0.00000000       0.00000000       0.00000000       0.00000000       0.47232777
Pr       0.00000000       0.00000000       2.96060606       0.00000000       0.00000000      -0.47232777
2
Properties=species:S:1:pos:R:3:forces:R:3 energy=-3.0677174116756696 pbc="F F F"
Pr       0.00000000       0.00000000       0.00000000       0.00000000       0.00000000       0.54497582
Pr       0.00000000       0.00000000       3.02020202       0.00000000       0.00000000      -0.54497582
2
Properties=species:S:1:pos:R:3:forces:R:3 energy=-3.033040767253803 pbc="F F F"
Pr       0.00000000       0.00000000       0.00000000       0.00000000       0.00000000       0.61990529
Pr       0.00000000       0.00000000       3.07979798       0.00000000       0.00000000      -0.61990529
2
Properties=species:S:1:pos:R:3:forces:R:3 energy=-2.9936650551850486 pbc="F F F"
Pr       0.00000000       0.00000000       0.00000000       0.00000000       0.00000000       0.70294094
Pr       0.00000000       0.00000000       3.13939394       0.00000000       0.00000000      -0.70294094
2
Properties=species:S:1:pos:R:3:forces:R:3 energy=-2.949133594168269 pbc="F F F"
Pr       0.00000000       0.00000000       0.00000000       0.00000000       0.00000000       0.79198998
Pr       0.00000000       0.00000000       3.19898990       0.00000000       0.00000000      -0.79198998
2
Properties=species:S:1:pos:R:3:forces:R:3 energy=-2.899283784716054 pbc="F F F"
Pr       0.00000000       0.00000000       0.00000000       0.00000000       0.00000000       0.88010085
Pr       0.00000000       0.00000000       3.25858586       0.00000000       0.00000000      -0.88010085
2
Properties=species:S:1:pos:R:3:forces:R:3 energy=-2.8443918799173855 pbc="F F F"
Pr       0.00000000       0.00000000       0.00000000       0.00000000       0.00000000       0.96023321
Pr       0.00000000       0.00000000       3.31818182       0.00000000       0.00000000      -0.96023321
2
Properties=species:S:1:pos:R:3:forces:R:3 energy=-2.7850707775590338 pbc="F F F"
Pr       0.00000000       0.00000000       0.00000000       0.00000000       0.00000000       1.02847230
Pr       0.00000000       0.00000000       3.37777778       0.00000000       0.00000000      -1.02847230
2
Properties=species:S:1:pos:R:3:forces:R:3 energy=-2.7220522702710097 pbc="F F F"
Pr       0.00000000       0.00000000       0.00000000       0.00000000       0.00000000       1.08440125
Pr       0.00000000       0.00000000       3.43737374       0.00000000       0.00000000      -1.08440125
2
Properties=species:S:1:pos:R:3:forces:R:3 energy=-2.656034130518339 pbc="F F F"
Pr       0.00000000       0.00000000       0.00000000       0.00000000       0.00000000       1.12944853
Pr       0.00000000       0.00000000       3.49696970       0.00000000       0.00000000      -1.12944853
2
Properties=species:S:1:pos:R:3:forces:R:3 energy=-2.587618033071477 pbc="F F F"
Pr       0.00000000       0.00000000       0.00000000       0.00000000       0.00000000       1.16504598
Pr       0.00000000       0.00000000       3.55656566       0.00000000       0.00000000      -1.16504598
2
Properties=species:S:1:pos:R:3:forces:R:3 energy=-2.5173474048757516 pbc="F F F"
Pr       0.00000000       0.00000000       0.00000000       0.00000000       0.00000000       1.19167566
Pr       0.00000000       0.00000000       3.61616162       0.00000000       0.00000000      -1.19167566
2
Properties=species:S:1:pos:R:3:forces:R:3 energy=-2.445767550210737 pbc="F F F"
Pr       0.00000000       0.00000000       0.00000000       0.00000000       0.00000000       1.20885515
Pr       0.00000000       0.00000000       3.67575758       0.00000000       0.00000000      -1.20885515
2
Properties=species:S:1:pos:R:3:forces:R:3 energy=-2.373468824132074 pbc="F F F"
Pr       0.00000000       0.00000000       0.00000000       0.00000000       0.00000000       1.21564639
Pr       0.00000000       0.00000000       3.73535354       0.00000000       0.00000000      -1.21564639
2
Properties=species:S:1:pos:R:3:forces:R:3 energy=-2.301095236211085 pbc="F F F"
Pr       0.00000000       0.00000000       0.00000000       0.00000000       0.00000000       1.21124756
Pr       0.00000000       0.00000000       3.79494949       0.00000000       0.00000000      -1.21124756
2
Properties=species:S:1:pos:R:3:forces:R:3 energy=-2.2293235100495843 pbc="F F F"
Pr       0.00000000       0.00000000       0.00000000       0.00000000       0.00000000       1.19549286
Pr       0.00000000       0.00000000       3.85454545       0.00000000       0.00000000      -1.19549286
2
Properties=species:S:1:pos:R:3:forces:R:3 energy=-2.158813000371073 pbc="F F F"
Pr       0.00000000       0.00000000       0.00000000       0.00000000       0.00000000       1.16920006
Pr       0.00000000       0.00000000       3.91414141       0.00000000       0.00000000      -1.16920006
2
Properties=species:S:1:pos:R:3:forces:R:3 energy=-2.090136059292565 pbc="F F F"
Pr       0.00000000       0.00000000       0.00000000       0.00000000       0.00000000       1.13428724
Pr       0.00000000       0.00000000       3.97373737       0.00000000       0.00000000      -1.13428724
2
Properties=species:S:1:pos:R:3:forces:R:3 energy=-2.0237306140340197 pbc="F F F"
Pr       0.00000000       0.00000000       0.00000000       0.00000000       0.00000000       1.09355390
Pr       0.00000000       0.00000000       4.03333333       0.00000000       0.00000000      -1.09355390
2
Properties=species:S:1:pos:R:3:forces:R:3 energy=-1.9598456704340343 pbc="F F F"
Pr       0.00000000       0.00000000       0.00000000       0.00000000       0.00000000       1.05018818
Pr       0.00000000       0.00000000       4.09292929       0.00000000       0.00000000      -1.05018818
2
Properties=species:S:1:pos:R:3:forces:R:3 energy=-1.898549282133266 pbc="F F F"
Pr       0.00000000       0.00000000       0.00000000       0.00000000       0.00000000       1.00714052
Pr       0.00000000       0.00000000       4.15252525       0.00000000       0.00000000      -1.00714052
2
Properties=species:S:1:pos:R:3:forces:R:3 energy=-1.8397510811301538 pbc="F F F"
Pr       0.00000000       0.00000000       0.00000000       0.00000000       0.00000000       0.96667999
Pr       0.00000000       0.00000000       4.21212121       0.00000000       0.00000000      -0.96667999
2
Properties=species:S:1:pos:R:3:forces:R:3 energy=-1.7832495785262958 pbc="F F F"
Pr       0.00000000       0.00000000       0.00000000       0.00000000       0.00000000       0.93016702
Pr       0.00000000       0.00000000       4.27171717       0.00000000       0.00000000      -0.93016702
2
Properties=species:S:1:pos:R:3:forces:R:3 energy=-1.7287929509287334 pbc="F F F"
Pr       0.00000000       0.00000000       0.00000000       0.00000000       0.00000000       0.89813048
Pr       0.00000000       0.00000000       4.33131313       0.00000000       0.00000000      -0.89813048
2
Properties=species:S:1:pos:R:3:forces:R:3 energy=-1.676114067806196 pbc="F F F"
Pr       0.00000000       0.00000000       0.00000000       0.00000000       0.00000000       0.87041640
Pr       0.00000000       0.00000000       4.39090909       0.00000000       0.00000000      -0.87041640
2
Properties=species:S:1:pos:R:3:forces:R:3 energy=-1.6249717148966114 pbc="F F F"
Pr       0.00000000       0.00000000       0.00000000       0.00000000       0.00000000       0.84641498
Pr       0.00000000       0.00000000       4.45050505       0.00000000       0.00000000      -0.84641498
2
Properties=species:S:1:pos:R:3:forces:R:3 energy=-1.5751727164498086 pbc="F F F"
Pr       0.00000000       0.00000000       0.00000000       0.00000000       0.00000000       0.82521009
Pr       0.00000000       0.00000000       4.51010101       0.00000000       0.00000000      -0.82521009
2
Properties=species:S:1:pos:R:3:forces:R:3 energy=-1.5265790952884866 pbc="F F F"
Pr       0.00000000       0.00000000       0.00000000       0.00000000       0.00000000       0.80570936
Pr       0.00000000       0.00000000       4.56969697       0.00000000       0.00000000      -0.80570936
2
Properties=species:S:1:pos:R:3:forces:R:3 energy=-1.479126682128673 pbc="F F F"
Pr       0.00000000       0.00000000       0.00000000       0.00000000       0.00000000       0.78676391
Pr       0.00000000       0.00000000       4.62929293       0.00000000       0.00000000      -0.78676391
2
Properties=species:S:1:pos:R:3:forces:R:3 energy=-1.4328143815759733 pbc="F F F"
Pr       0.00000000       0.00000000       0.00000000       0.00000000       0.00000000       0.76732129
Pr       0.00000000       0.00000000       4.68888889       0.00000000       0.00000000      -0.76732129
2
Properties=species:S:1:pos:R:3:forces:R:3 energy=-1.3876935751700876 pbc="F F F"
Pr       0.00000000       0.00000000       0.00000000       0.00000000       0.00000000       0.74661142
Pr       0.00000000       0.00000000       4.74848485       0.00000000       0.00000000      -0.74661142
2
Properties=species:S:1:pos:R:3:forces:R:3 energy=-1.343854970349096 pbc="F F F"
Pr       0.00000000       0.00000000       0.00000000       0.00000000       0.00000000       0.72439468
Pr       0.00000000       0.00000000       4.80808081       0.00000000       0.00000000      -0.72439468
2
Properties=species:S:1:pos:R:3:forces:R:3 energy=-1.3013705985465047 pbc="F F F"
Pr       0.00000000       0.00000000       0.00000000       0.00000000       0.00000000       0.70124817
Pr       0.00000000       0.00000000       4.86767677       0.00000000       0.00000000      -0.70124817
2
Properties=species:S:1:pos:R:3:forces:R:3 energy=-1.2602557850919753 pbc="F F F"
Pr       0.00000000       0.00000000       0.00000000       0.00000000       0.00000000       0.67883748
Pr       0.00000000       0.00000000       4.92727273       0.00000000       0.00000000      -0.67883748
2
Properties=species:S:1:pos:R:3:forces:R:3 energy=-1.2203895629233679 pbc="F F F"
Pr       0.00000000       0.00000000       0.00000000       0.00000000       0.00000000       0.65991539
Pr       0.00000000       0.00000000       4.98686869       0.00000000       0.00000000      -0.65991539
2
Properties=species:S:1:pos:R:3:forces:R:3 energy=-1.1814651195361527 pbc="F F F"
Pr       0.00000000       0.00000000       0.00000000       0.00000000       0.00000000       0.64795935
Pr       0.00000000       0.00000000       5.04646465       0.00000000       0.00000000      -0.64795935
2
Properties=species:S:1:pos:R:3:forces:R:3 energy=-1.1429612351031688 pbc="F F F"
Pr       0.00000000       0.00000000       0.00000000       0.00000000       0.00000000       0.64598924
Pr       0.00000000       0.00000000       5.10606061       0.00000000       0.00000000      -0.64598924
2
Properties=species:S:1:pos:R:3:forces:R:3 energy=-1.1042521324190506 pbc="F F F"
Pr       0.00000000       0.00000000       0.00000000       0.00000000       0.00000000       0.65438950
Pr       0.00000000       0.00000000       5.16565657       0.00000000       0.00000000      -0.65438950
2
Properties=species:S:1:pos:R:3:forces:R:3 energy=-1.0648503367333126 pbc="F F F"
Pr       0.00000000       0.00000000       0.00000000       0.00000000       0.00000000       0.66802174
Pr       0.00000000       0.00000000       5.22525253       0.00000000       0.00000000      -0.66802174
2
Properties=species:S:1:pos:R:3:forces:R:3 energy=-1.0247751314894655 pbc="F F F"
Pr       0.00000000       0.00000000       0.00000000       0.00000000       0.00000000       0.67436314
Pr       0.00000000       0.00000000       5.28484848       0.00000000       0.00000000      -0.67436314
2
Properties=species:S:1:pos:R:3:forces:R:3 energy=-0.9849126083933258 pbc="F F F"
Pr       0.00000000       0.00000000       0.00000000       0.00000000       0.00000000       0.65916795
Pr       0.00000000       0.00000000       5.34444444       0.00000000       0.00000000      -0.65916795
2
Properties=species:S:1:pos:R:3:forces:R:3 energy=-0.9465375393754544 pbc="F F F"
Pr       0.00000000       0.00000000       0.00000000       0.00000000       0.00000000       0.62873030
Pr       0.00000000       0.00000000       5.40404040       0.00000000       0.00000000      -0.62873030
2
Properties=species:S:1:pos:R:3:forces:R:3 energy=-0.9095079924986214 pbc="F F F"
Pr       0.00000000       0.00000000       0.00000000       0.00000000       0.00000000       0.61988628
Pr       0.00000000       0.00000000       5.46363636       0.00000000       0.00000000      -0.61988628
2
Properties=species:S:1:pos:R:3:forces:R:3 energy=-0.8722523522324285 pbc="F F F"
Pr       0.00000000       0.00000000       0.00000000       0.00000000       0.00000000       0.62872511
Pr       0.00000000       0.00000000       5.52323232       0.00000000       0.00000000      -0.62872511
2
Properties=species:S:1:pos:R:3:forces:R:3 energy=-0.8355184985430366 pbc="F F F"
Pr       0.00000000       0.00000000       0.00000000       0.00000000       0.00000000       0.59381241
Pr       0.00000000       0.00000000       5.58282828       0.00000000       0.00000000      -0.59381241
2
Properties=species:S:1:pos:R:3:forces:R:3 energy=-0.8023026861286028 pbc="F F F"
Pr       0.00000000       0.00000000       0.00000000       0.00000000       0.00000000       0.51958013
Pr       0.00000000       0.00000000       5.64242424       0.00000000       0.00000000      -0.51958013
2
Properties=species:S:1:pos:R:3:forces:R:3 energy=-0.7728810938839781 pbc="F F F"
Pr       0.00000000       0.00000000       0.00000000       0.00000000       0.00000000       0.48008794
Pr       0.00000000       0.00000000       5.70202020       0.00000000       0.00000000      -0.48008794
2
Properties=species:S:1:pos:R:3:forces:R:3 energy=-0.7433932928391391 pbc="F F F"
Pr       0.00000000       0.00000000       0.00000000       0.00000000       0.00000000       0.51869661
Pr       0.00000000       0.00000000       5.76161616       0.00000000       0.00000000      -0.51869661
2
Properties=species:S:1:pos:R:3:forces:R:3 energy=-0.7120134689088553 pbc="F F F"
Pr       0.00000000       0.00000000       0.00000000       0.00000000       0.00000000       0.50941902
Pr       0.00000000       0.00000000       5.82121212       0.00000000       0.00000000      -0.50941902
2
Properties=species:S:1:pos:R:3:forces:R:3 energy=-0.6861082686560334 pbc="F F F"
Pr       0.00000000       0.00000000       0.00000000       0.00000000       0.00000000       0.34082642
Pr       0.00000000       0.00000000       5.88080808       0.00000000       0.00000000      -0.34082642
2
Properties=species:S:1:pos:R:3:forces:R:3 energy=-0.6720733743083805 pbc="F F F"
Pr       0.00000000       0.00000000       0.00000000       0.00000000       0.00000000       0.13481358
Pr       0.00000000       0.00000000       5.94040404       0.00000000       0.00000000      -0.13481358
2
Properties=species:S:1:pos:R:3:forces:R:3 energy=-0.6675005098480447 pbc="F F F"
Pr       0.00000000       0.00000000       0.00000000       0.00000000       0.00000000       0.04782233
Pr       0.00000000       0.00000000       6.00000000       0.00000000       0.00000000      -0.04782233
