2
Properties=species:S:1:pos:R:3:forces:R:3 energy=42946.03951207607 pbc="F F F"
Sb       0.00000000       0.00000000       0.00000000       0.00000000       0.00000000 -1053489.75000000
Sb       0.00000000       0.00000000       0.10000000       0.00000000       0.00000000 1053489.75000000
2
Properties=species:S:1:pos:R:3:forces:R:3 energy=12056.499473013573 pbc="F F F"
Sb       0.00000000       0.00000000       0.00000000       0.00000000       0.00000000 -228147.06250000
Sb       0.00000000       0.00000000       0.15959596       0.00000000       0.00000000  228147.06250000
2
Properties=species:S:1:pos:R:3:forces:R:3 energy=4224.391074576073 pbc="F F F"
Sb       0.00000000       0.00000000       0.00000000       0.00000000       0.00000000  -70173.40625000
Sb       0.00000000       0.00000000       0.21919192       0.00000000       0.00000000   70173.40625000
2
Properties=species:S:1:pos:R:3:forces:R:3 energy=1634.9993509432604 pbc="F F F"
Sb       0.00000000       0.00000000       0.00000000       0.00000000       0.00000000  -24748.66992188
Sb       0.00000000       0.00000000       0.27878788       0.00000000       0.00000000   24748.66992188
2
Properties=species:S:1:pos:R:3:forces:R:3 energy=741.9881204808462 pbc="F F F"
Sb       0.00000000       0.00000000       0.00000000       0.00000000       0.00000000   -7683.54785156
Sb       0.00000000       0.00000000       0.33838384       0.00000000       0.00000000    7683.54785156
2
Properties=species:S:1:pos:R:3:forces:R:3 energy=527.3250345433462 pbc="F F F"
Sb       0.00000000       0.00000000       0.00000000       0.00000000       0.00000000    -645.22589111
Sb       0.00000000       0.00000000       0.39797980       0.00000000       0.00000000     645.22589111
2
Properties=species:S:1:pos:R:3:forces:R:3 energy=556.6902689310175 pbc="F F F"
Sb       0.00000000       0.00000000       0.00000000       0.00000000       0.00000000     920.02923584
Sb       0.00000000       0.00000000       0.45757576       0.00000000       0.00000000    -920.02923584
2
Properties=species:S:1:pos:R:3:forces:R:3 energy=531.8581156360475 pbc="F F F"
Sb       0.00000000       0.00000000       0.00000000       0.00000000       0.00000000   -1121.05444336
Sb       0.00000000       0.00000000       0.51717172       0.00000000       0.00000000    1121.05444336
2
Properties=species:S:1:pos:R:3:forces:R:3 energy=384.1200785710221 pbc="F F F"
Sb       0.00000000       0.00000000       0.00000000       0.00000000       0.00000000   -3830.15625000
Sb       0.00000000       0.00000000       0.57676768       0.00000000       0.00000000    3830.15625000
2
Properties=species:S:1:pos:R:3:forces:R:3 energy=212.3868327974404 pbc="F F F"
Sb       0.00000000       0.00000000       0.00000000       0.00000000       0.00000000   -1580.42980957
Sb       0.00000000       0.00000000       0.63636364       0.00000000       0.00000000    1580.42980957
2
Properties=species:S:1:pos:R:3:forces:R:3 energy=158.03534671176297 pbc="F F F"
Sb       0.00000000       0.00000000       0.00000000       0.00000000       0.00000000    -234.96296692
Sb       0.00000000       0.00000000       0.69595960       0.00000000       0.00000000     234.96296692
2
Properties=species:S:1:pos:R:3:forces:R:3 energy=149.59143819775477 pbc="F F F"
Sb       0.00000000       0.00000000       0.00000000       0.00000000       0.00000000    -206.61880493
Sb       0.00000000       0.00000000       0.75555556       0.00000000       0.00000000     206.61880493
2
Properties=species:S:1:pos:R:3:forces:R:3 energy=135.72356432467964 pbc="F F F"
Sb       0.00000000       0.00000000       0.00000000       0.00000000       0.00000000    -254.22180176
Sb       0.00000000       0.00000000       0.81515152       0.00000000       0.00000000     254.22180176
2
Properties=species:S:1:pos:R:3:forces:R:3 energy=121.70208797188413 pbc="F F F"
Sb       0.00000000       0.00000000       0.00000000       0.00000000       0.00000000    -219.68452454
Sb       0.00000000       0.00000000       0.87474747       0.00000000       0.00000000     219.68452454
2
Properties=species:S:1:pos:R:3:forces:R:3 energy=108.57477682287785 pbc="F F F"
Sb       0.00000000       0.00000000       0.00000000       0.00000000       0.00000000    -225.25627136
Sb       0.00000000       0.00000000       0.93434343       0.00000000       0.00000000     225.25627136
2
Properties=species:S:1:pos:R:3:forces:R:3 energy=95.31478308265487 pbc="F F F"
Sb       0.00000000       0.00000000       0.00000000       0.00000000       0.00000000    -209.21730042
Sb       0.00000000       0.00000000       0.99393939       0.00000000       0.00000000     209.21730042
2
Properties=species:S:1:pos:R:3:forces:R:3 energy=84.77879627403227 pbc="F F F"
Sb       0.00000000       0.00000000       0.00000000       0.00000000       0.00000000    -143.24676514
Sb       0.00000000       0.00000000       1.05353535       0.00000000       0.00000000     143.24676514
2
Properties=species:S:1:pos:R:3:forces:R:3 energy=77.3150220331084 pbc="F F F"
Sb       0.00000000       0.00000000       0.00000000       0.00000000       0.00000000    -118.91307068
Sb       0.00000000       0.00000000       1.11313131       0.00000000       0.00000000     118.91307068
2
Properties=species:S:1:pos:R:3:forces:R:3 energy=69.58045813558196 pbc="F F F"
Sb       0.00000000       0.00000000       0.00000000       0.00000000       0.00000000    -142.91166687
Sb       0.00000000       0.00000000       1.17272727       0.00000000       0.00000000     142.91166687
2
Properties=species:S:1:pos:R:3:forces:R:3 energy=60.563214277781974 pbc="F F F"
Sb       0.00000000       0.00000000       0.00000000       0.00000000       0.00000000    -155.82887268
Sb       0.00000000       0.00000000       1.23232323       0.00000000       0.00000000     155.82887268
2
Properties=species:S:1:pos:R:3:forces:R:3 energy=51.45450229319641 pbc="F F F"
Sb       0.00000000       0.00000000       0.00000000       0.00000000       0.00000000    -146.39208984
Sb       0.00000000       0.00000000       1.29191919       0.00000000       0.00000000     146.39208984
2
Properties=species:S:1:pos:R:3:forces:R:3 energy=43.36417797306492 pbc="F F F"
Sb       0.00000000       0.00000000       0.00000000       0.00000000       0.00000000    -124.87420654
Sb       0.00000000       0.00000000       1.35151515       0.00000000       0.00000000     124.87420654
2
Properties=species:S:1:pos:R:3:forces:R:3 energy=36.443250107078214 pbc="F F F"
Sb       0.00000000       0.00000000       0.00000000       0.00000000       0.00000000    -109.00650787
Sb       0.00000000       0.00000000       1.41111111       0.00000000       0.00000000     109.00650787
2
Properties=species:S:1:pos:R:3:forces:R:3 energy=30.21403487698082 pbc="F F F"
Sb       0.00000000       0.00000000       0.00000000       0.00000000       0.00000000    -100.80313110
Sb       0.00000000       0.00000000       1.47070707       0.00000000       0.00000000     100.80313110
2
Properties=species:S:1:pos:R:3:forces:R:3 energy=24.407104264017743 pbc="F F F"
Sb       0.00000000       0.00000000       0.00000000       0.00000000       0.00000000     -93.81112671
Sb       0.00000000       0.00000000       1.53030303       0.00000000       0.00000000      93.81112671
2
Properties=species:S:1:pos:R:3:forces:R:3 energy=19.0833163071132 pbc="F F F"
Sb       0.00000000       0.00000000       0.00000000       0.00000000       0.00000000     -84.41773224
Sb       0.00000000       0.00000000       1.58989899       0.00000000       0.00000000      84.41773224
2
Properties=species:S:1:pos:R:3:forces:R:3 energy=14.382719350087974 pbc="F F F"
Sb       0.00000000       0.00000000       0.00000000       0.00000000       0.00000000     -73.15631866
Sb       0.00000000       0.00000000       1.64949495       0.00000000       0.00000000      73.15631866
2
Properties=species:S:1:pos:R:3:forces:R:3 energy=10.369401602803679 pbc="F F F"
Sb       0.00000000       0.00000000       0.00000000       0.00000000       0.00000000     -61.58454895
Sb       0.00000000       0.00000000       1.70909091       0.00000000       0.00000000      61.58454895
2
Properties=species:S:1:pos:R:3:forces:R:3 energy=7.026550186207658 pbc="F F F"
Sb       0.00000000       0.00000000       0.00000000       0.00000000       0.00000000     -50.79208374
Sb       0.00000000       0.00000000       1.76868687       0.00000000       0.00000000      50.79208374
2
Properties=species:S:1:pos:R:3:forces:R:3 energy=4.287925233126068 pbc="F F F"
Sb       0.00000000       0.00000000       0.00000000       0.00000000       0.00000000     -41.36687851
Sb       0.00000000       0.00000000       1.82828283       0.00000000       0.00000000      41.36687851
2
Properties=species:S:1:pos:R:3:forces:R:3 energy=2.0657594236499803 pbc="F F F"
Sb       0.00000000       0.00000000       0.00000000       0.00000000       0.00000000     -33.45287704
Sb       0.00000000       0.00000000       1.88787879       0.00000000       0.00000000      33.45287704
2
Properties=species:S:1:pos:R:3:forces:R:3 energy=0.273261787294461 pbc="F F F"
Sb       0.00000000       0.00000000       0.00000000       0.00000000       0.00000000     -26.91285133
Sb       0.00000000       0.00000000       1.94747475       0.00000000       0.00000000      26.91285133
2
Properties=species:S:1:pos:R:3:forces:R:3 energy=-1.1648105217646831 pbc="F F F"
Sb       0.00000000       0.00000000       0.00000000       0.00000000       0.00000000     -21.51943207
Sb       0.00000000       0.00000000       2.00707071       0.00000000       0.00000000      21.51943207
2
Properties=species:S:1:pos:R:3:forces:R:3 energy=-2.3100658300408323 pbc="F F F"
Sb       0.00000000       0.00000000       0.00000000       0.00000000       0.00000000     -17.05314064
Sb       0.00000000       0.00000000       2.06666667       0.00000000       0.00000000      17.05314064
2
Properties=species:S:1:pos:R:3:forces:R:3 energy=-3.2122556063336245 pbc="F F F"
Sb       0.00000000       0.00000000       0.00000000       0.00000000       0.00000000     -13.33611488
Sb       0.00000000       0.00000000       2.12626263       0.00000000       0.00000000      13.33611488
2
Properties=species:S:1:pos:R:3:forces:R:3 energy=-3.911821261662206 pbc="F F F"
Sb       0.00000000       0.00000000       0.00000000       0.00000000       0.00000000     -10.23416710
Sb       0.00000000       0.00000000       2.18585859       0.00000000       0.00000000      10.23416710
2
Properties=species:S:1:pos:R:3:forces:R:3 energy=-4.442275184929565 pbc="F F F"
Sb       0.00000000       0.00000000       0.00000000       0.00000000       0.00000000      -7.64599466
Sb       0.00000000       0.00000000       2.24545455       0.00000000       0.00000000       7.64599466
2
Properties=species:S:1:pos:R:3:forces:R:3 energy=-4.831785072394529 pbc="F F F"
Sb       0.00000000       0.00000000       0.00000000       0.00000000       0.00000000      -5.49224377
Sb       0.00000000       0.00000000       2.30505051       0.00000000       0.00000000       5.49224377
2
Properties=species:S:1:pos:R:3:forces:R:3 energy=-5.104234168757378 pbc="F F F"
Sb       0.00000000       0.00000000       0.00000000       0.00000000       0.00000000      -3.70777225
Sb       0.00000000       0.00000000       2.36464646       0.00000000       0.00000000       3.70777225
2
Properties=species:S:1:pos:R:3:forces:R:3 energy=-5.279977079398184 pbc="F F F"
Sb       0.00000000       0.00000000       0.00000000       0.00000000       0.00000000      -2.23860788
Sb       0.00000000       0.00000000       2.42424242       0.00000000       0.00000000       2.23860788
2
Properties=species:S:1:pos:R:3:forces:R:3 energy=-5.376450115603659 pbc="F F F"
Sb       0.00000000       0.00000000       0.00000000       0.00000000       0.00000000      -1.04109299
Sb       0.00000000       0.00000000       2.48383838       0.00000000       0.00000000       1.04109299
2
Properties=species:S:1:pos:R:3:forces:R:3 energy=-5.408759724291669 pbc="F F F"
Sb       0.00000000       0.00000000       0.00000000       0.00000000       0.00000000      -0.07996061
Sb       0.00000000       0.00000000       2.54343434       0.00000000       0.00000000       0.07996061
2
Properties=species:S:1:pos:R:3:forces:R:3 energy=-5.390075929351908 pbc="F F F"
Sb       0.00000000       0.00000000       0.00000000       0.00000000       0.00000000       0.67500585
Sb       0.00000000       0.00000000       2.60303030       0.00000000       0.00000000      -0.67500585
2
Properties=species:S:1:pos:R:3:forces:R:3 energy=-5.331834002085588 pbc="F F F"
Sb       0.00000000       0.00000000       0.00000000       0.00000000       0.00000000       1.25225258
Sb       0.00000000       0.00000000       2.66262626       0.00000000       0.00000000      -1.25225258
2
Properties=species:S:1:pos:R:3:forces:R:3 energy=-5.243787923987971 pbc="F F F"
Sb       0.00000000       0.00000000       0.00000000       0.00000000       0.00000000       1.67991173
Sb       0.00000000       0.00000000       2.72222222       0.00000000       0.00000000      -1.67991173
2
Properties=species:S:1:pos:R:3:forces:R:3 energy=-5.1340347054434226 pbc="F F F"
Sb       0.00000000       0.00000000       0.00000000       0.00000000       0.00000000       1.98503447
Sb       0.00000000       0.00000000       2.78181818       0.00000000       0.00000000      -1.98503447
2
Properties=species:S:1:pos:R:3:forces:R:3 energy=-5.00913695188201 pbc="F F F"
Sb       0.00000000       0.00000000       0.00000000       0.00000000       0.00000000       2.19188309
Sb       0.00000000       0.00000000       2.84141414       0.00000000       0.00000000      -2.19188309
2
Properties=species:S:1:pos:R:3:forces:R:3 energy=-4.874330007511139 pbc="F F F"
Sb       0.00000000       0.00000000       0.00000000       0.00000000       0.00000000       2.32058501
Sb       0.00000000       0.00000000       2.90101010       0.00000000       0.00000000      -2.32058501
2
Properties=species:S:1:pos:R:3:forces:R:3 energy=-4.733777386313044 pbc="F F F"
Sb       0.00000000       0.00000000       0.00000000       0.00000000       0.00000000       2.38702035
Sb       0.00000000       0.00000000       2.96060606       0.00000000       0.00000000      -2.38702035
2
Properties=species:S:1:pos:R:3:forces:R:3 energy=-4.590806307266337 pbc="F F F"
Sb       0.00000000       0.00000000       0.00000000       0.00000000       0.00000000       2.40351152
Sb       0.00000000       0.00000000       3.02020202       0.00000000       0.00000000      -2.40351152
2
Properties=species:S:1:pos:R:3:forces:R:3 energy=-4.4480974578721835 pbc="F F F"
Sb       0.00000000       0.00000000       0.00000000       0.00000000       0.00000000       2.37970257
Sb       0.00000000       0.00000000       3.07979798       0.00000000       0.00000000      -2.37970257
2
Properties=species:S:1:pos:R:3:forces:R:3 energy=-4.307813676510864 pbc="F F F"
Sb       0.00000000       0.00000000       0.00000000       0.00000000       0.00000000       2.32321191
Sb       0.00000000       0.00000000       3.13939394       0.00000000       0.00000000      -2.32321191
2
Properties=species:S:1:pos:R:3:forces:R:3 energy=-4.171715063434059 pbc="F F F"
Sb       0.00000000       0.00000000       0.00000000       0.00000000       0.00000000       2.24017739
Sb       0.00000000       0.00000000       3.19898990       0.00000000       0.00000000      -2.24017739
2
Properties=species:S:1:pos:R:3:forces:R:3 energy=-4.0412240098074195 pbc="F F F"
Sb       0.00000000       0.00000000       0.00000000       0.00000000       0.00000000       2.13592243
Sb       0.00000000       0.00000000       3.25858586       0.00000000       0.00000000      -2.13592243
2
Properties=species:S:1:pos:R:3:forces:R:3 energy=-3.9174501486877733 pbc="F F F"
Sb       0.00000000       0.00000000       0.00000000       0.00000000       0.00000000       2.01555562
Sb       0.00000000       0.00000000       3.31818182       0.00000000       0.00000000      -2.01555562
2
Properties=species:S:1:pos:R:3:forces:R:3 energy=-3.80120665541545 pbc="F F F"
Sb       0.00000000       0.00000000       0.00000000       0.00000000       0.00000000       1.88403749
Sb       0.00000000       0.00000000       3.37777778       0.00000000       0.00000000      -1.88403749
2
Properties=species:S:1:pos:R:3:forces:R:3 energy=-3.6930245894967624 pbc="F F F"
Sb       0.00000000       0.00000000       0.00000000       0.00000000       0.00000000       1.74566007
Sb       0.00000000       0.00000000       3.43737374       0.00000000       0.00000000      -1.74566007
2
Properties=species:S:1:pos:R:3:forces:R:3 energy=-3.593204941951072 pbc="F F F"
Sb       0.00000000       0.00000000       0.00000000       0.00000000       0.00000000       1.60391450
Sb       0.00000000       0.00000000       3.49696970       0.00000000       0.00000000      -1.60391450
2
Properties=species:S:1:pos:R:3:forces:R:3 energy=-3.5018549984180334 pbc="F F F"
Sb       0.00000000       0.00000000       0.00000000       0.00000000       0.00000000       1.46188951
Sb       0.00000000       0.00000000       3.55656566       0.00000000       0.00000000      -1.46188951
2
Properties=species:S:1:pos:R:3:forces:R:3 energy=-3.4189081226502953 pbc="F F F"
Sb       0.00000000       0.00000000       0.00000000       0.00000000       0.00000000       1.32243180
Sb       0.00000000       0.00000000       3.61616162       0.00000000       0.00000000      -1.32243180
2
Properties=species:S:1:pos:R:3:forces:R:3 energy=-3.3441331119207285 pbc="F F F"
Sb       0.00000000       0.00000000       0.00000000       0.00000000       0.00000000       1.18798518
Sb       0.00000000       0.00000000       3.67575758       0.00000000       0.00000000      -1.18798518
2
Properties=species:S:1:pos:R:3:forces:R:3 energy=-3.277172099527889 pbc="F F F"
Sb       0.00000000       0.00000000       0.00000000       0.00000000       0.00000000       1.06045437
Sb       0.00000000       0.00000000       3.73535354       0.00000000       0.00000000      -1.06045437
2
Properties=species:S:1:pos:R:3:forces:R:3 energy=-3.217571256267678 pbc="F F F"
Sb       0.00000000       0.00000000       0.00000000       0.00000000       0.00000000       0.94115007
Sb       0.00000000       0.00000000       3.79494949       0.00000000       0.00000000      -0.94115007
2
Properties=species:S:1:pos:R:3:forces:R:3 energy=-3.164816000195468 pbc="F F F"
Sb       0.00000000       0.00000000       0.00000000       0.00000000       0.00000000       0.83081323
Sb       0.00000000       0.00000000       3.85454545       0.00000000       0.00000000      -0.83081323
2
Properties=species:S:1:pos:R:3:forces:R:3 energy=-3.1183617959805483 pbc="F F F"
Sb       0.00000000       0.00000000       0.00000000       0.00000000       0.00000000       0.72970217
Sb       0.00000000       0.00000000       3.91414141       0.00000000       0.00000000      -0.72970217
2
Properties=species:S:1:pos:R:3:forces:R:3 energy=-3.077659854099582 pbc="F F F"
Sb       0.00000000       0.00000000       0.00000000       0.00000000       0.00000000       0.63770926
Sb       0.00000000       0.00000000       3.97373737       0.00000000       0.00000000      -0.63770926
2
Properties=species:S:1:pos:R:3:forces:R:3 energy=-3.0421772735428334 pbc="F F F"
Sb       0.00000000       0.00000000       0.00000000       0.00000000       0.00000000       0.55450416
Sb       0.00000000       0.00000000       4.03333333       0.00000000       0.00000000      -0.55450416
2
Properties=species:S:1:pos:R:3:forces:R:3 energy=-3.0114022418414823 pbc="F F F"
Sb       0.00000000       0.00000000       0.00000000       0.00000000       0.00000000       0.47961974
Sb       0.00000000       0.00000000       4.09292929       0.00000000       0.00000000      -0.47961974
2
Properties=species:S:1:pos:R:3:forces:R:3 energy=-2.9848549919868748 pbc="F F F"
Sb       0.00000000       0.00000000       0.00000000       0.00000000       0.00000000       0.41254804
Sb       0.00000000       0.00000000       4.15252525       0.00000000       0.00000000      -0.41254804
2
Properties=species:S:1:pos:R:3:forces:R:3 energy=-2.9620847346672203 pbc="F F F"
Sb       0.00000000       0.00000000       0.00000000       0.00000000       0.00000000       0.35279262
Sb       0.00000000       0.00000000       4.21212121       0.00000000       0.00000000      -0.35279262
2
Properties=species:S:1:pos:R:3:forces:R:3 energy=-2.9426689081658064 pbc="F F F"
Sb       0.00000000       0.00000000       0.00000000       0.00000000       0.00000000       0.29988760
Sb       0.00000000       0.00000000       4.27171717       0.00000000       0.00000000      -0.29988760
2
Properties=species:S:1:pos:R:3:forces:R:3 energy=-2.9262129652850017 pbc="F F F"
Sb       0.00000000       0.00000000       0.00000000       0.00000000       0.00000000       0.25341180
Sb       0.00000000       0.00000000       4.33131313       0.00000000       0.00000000      -0.25341180
2
Properties=species:S:1:pos:R:3:forces:R:3 energy=-2.912344575272621 pbc="F F F"
Sb       0.00000000       0.00000000       0.00000000       0.00000000       0.00000000       0.21296233
Sb       0.00000000       0.00000000       4.39090909       0.00000000       0.00000000      -0.21296233
2
Properties=species:S:1:pos:R:3:forces:R:3 energy=-2.9007173023028425 pbc="F F F"
Sb       0.00000000       0.00000000       0.00000000       0.00000000       0.00000000       0.17814727
Sb       0.00000000       0.00000000       4.45050505       0.00000000       0.00000000      -0.17814727
2
Properties=species:S:1:pos:R:3:forces:R:3 energy=-2.8910072549448094 pbc="F F F"
Sb       0.00000000       0.00000000       0.00000000       0.00000000       0.00000000       0.14854880
Sb       0.00000000       0.00000000       4.51010101       0.00000000       0.00000000      -0.14854880
2
Properties=species:S:1:pos:R:3:forces:R:3 energy=-2.882916946041324 pbc="F F F"
Sb       0.00000000       0.00000000       0.00000000       0.00000000       0.00000000       0.12370454
Sb       0.00000000       0.00000000       4.56969697       0.00000000       0.00000000      -0.12370454
2
Properties=species:S:1:pos:R:3:forces:R:3 energy=-2.8761783604721565 pbc="F F F"
Sb       0.00000000       0.00000000       0.00000000       0.00000000       0.00000000       0.10310382
Sb       0.00000000       0.00000000       4.62929293       0.00000000       0.00000000      -0.10310382
2
Properties=species:S:1:pos:R:3:forces:R:3 energy=-2.870554506874676 pbc="F F F"
Sb       0.00000000       0.00000000       0.00000000       0.00000000       0.00000000       0.08619420
Sb       0.00000000       0.00000000       4.68888889       0.00000000       0.00000000      -0.08619420
2
Properties=species:S:1:pos:R:3:forces:R:3 energy=-2.8658426636371175 pbc="F F F"
Sb       0.00000000       0.00000000       0.00000000       0.00000000       0.00000000       0.07240526
Sb       0.00000000       0.00000000       4.74848485       0.00000000       0.00000000      -0.07240526
2
Properties=species:S:1:pos:R:3:forces:R:3 energy=-2.8618733064309354 pbc="F F F"
Sb       0.00000000       0.00000000       0.00000000       0.00000000       0.00000000       0.06119884
Sb       0.00000000       0.00000000       4.80808081       0.00000000       0.00000000      -0.06119884
2
Properties=species:S:1:pos:R:3:forces:R:3 energy=-2.858506329943492 pbc="F F F"
Sb       0.00000000       0.00000000       0.00000000       0.00000000       0.00000000       0.05210932
Sb       0.00000000       0.00000000       4.86767677       0.00000000       0.00000000      -0.05210932
2
Properties=species:S:1:pos:R:3:forces:R:3 energy=-2.855626883888436 pbc="F F F"
Sb       0.00000000       0.00000000       0.00000000       0.00000000       0.00000000       0.04478968
Sb       0.00000000       0.00000000       4.92727273       0.00000000       0.00000000      -0.04478968
2
Properties=species:S:1:pos:R:3:forces:R:3 energy=-2.8531367519229924 pbc="F F F"
Sb       0.00000000       0.00000000       0.00000000       0.00000000       0.00000000       0.03903144
Sb       0.00000000       0.00000000       4.98686869       0.00000000       0.00000000      -0.03903144
2
Properties=species:S:1:pos:R:3:forces:R:3 energy=-2.8509458192642665 pbc="F F F"
Sb       0.00000000       0.00000000       0.00000000       0.00000000       0.00000000       0.03475182
Sb       0.00000000       0.00000000       5.04646465       0.00000000       0.00000000      -0.03475182
2
Properties=species:S:1:pos:R:3:forces:R:3 energy=-2.8489655451046776 pbc="F F F"
Sb       0.00000000       0.00000000       0.00000000       0.00000000       0.00000000       0.03194635
Sb       0.00000000       0.00000000       5.10606061       0.00000000       0.00000000      -0.03194635
2
Properties=species:S:1:pos:R:3:forces:R:3 energy=-2.8471081071401296 pbc="F F F"
Sb       0.00000000       0.00000000       0.00000000       0.00000000       0.00000000       0.03062704
Sb       0.00000000       0.00000000       5.16565657       0.00000000       0.00000000      -0.03062704
2
Properties=species:S:1:pos:R:3:forces:R:3 energy=-2.845285446311784 pbc="F F F"
Sb       0.00000000       0.00000000       0.00000000       0.00000000       0.00000000       0.03078313
Sb       0.00000000       0.00000000       5.22525253       0.00000000       0.00000000      -0.03078313
2
Properties=species:S:1:pos:R:3:forces:R:3 energy=-2.8434099852296173 pbc="F F F"
Sb       0.00000000       0.00000000       0.00000000       0.00000000       0.00000000       0.03240182
Sb       0.00000000       0.00000000       5.28484848       0.00000000       0.00000000      -0.03240182
2
Properties=species:S:1:pos:R:3:forces:R:3 energy=-2.8413973252206137 pbc="F F F"
Sb       0.00000000       0.00000000       0.00000000       0.00000000       0.00000000       0.03529366
Sb       0.00000000       0.00000000       5.34444444       0.00000000       0.00000000      -0.03529366
2
Properties=species:S:1:pos:R:3:forces:R:3 energy=-2.839206325992631 pbc="F F F"
Sb       0.00000000       0.00000000       0.00000000       0.00000000       0.00000000       0.03790821
Sb       0.00000000       0.00000000       5.40404040       0.00000000       0.00000000      -0.03790821
2
Properties=species:S:1:pos:R:3:forces:R:3 energy=-2.8369676560141346 pbc="F F F"
Sb       0.00000000       0.00000000       0.00000000       0.00000000       0.00000000       0.03610791
Sb       0.00000000       0.00000000       5.46363636       0.00000000       0.00000000      -0.03610791
2
Properties=species:S:1:pos:R:3:forces:R:3 energy=-2.835020562828355 pbc="F F F"
Sb       0.00000000       0.00000000       0.00000000       0.00000000       0.00000000       0.02881327
Sb       0.00000000       0.00000000       5.52323232       0.00000000       0.00000000      -0.02881327
2
Properties=species:S:1:pos:R:3:forces:R:3 energy=-2.8334973601550715 pbc="F F F"
Sb       0.00000000       0.00000000       0.00000000       0.00000000       0.00000000       0.02306820
Sb       0.00000000       0.00000000       5.58282828       0.00000000       0.00000000      -0.02306820
2
Properties=species:S:1:pos:R:3:forces:R:3 energy=-2.8322063596165354 pbc="F F F"
Sb       0.00000000       0.00000000       0.00000000       0.00000000       0.00000000       0.02027188
Sb       0.00000000       0.00000000       5.64242424       0.00000000       0.00000000      -0.02027188
2
Properties=species:S:1:pos:R:3:forces:R:3 energy=-2.8311574363606997 pbc="F F F"
Sb       0.00000000       0.00000000       0.00000000       0.00000000       0.00000000       0.01373284
Sb       0.00000000       0.00000000       5.70202020       0.00000000       0.00000000      -0.01373284
2
Properties=species:S:1:pos:R:3:forces:R:3 energy=-2.830708676286255 pbc="F F F"
Sb       0.00000000       0.00000000       0.00000000       0.00000000       0.00000000       0.00079313
Sb       0.00000000       0.00000000       5.76161616       0.00000000       0.00000000      -0.00079313
2
Properties=species:S:1:pos:R:3:forces:R:3 energy=-2.8309646091328866 pbc="F F F"
Sb       0.00000000       0.00000000       0.00000000       0.00000000       0.00000000      -0.00729305
Sb       0.00000000       0.00000000       5.82121212       0.00000000       0.00000000       0.00729305
2
Properties=species:S:1:pos:R:3:forces:R:3 energy=-2.831311126693358 pbc="F F F"
Sb       0.00000000       0.00000000       0.00000000       0.00000000       0.00000000      -0.00284006
Sb       0.00000000       0.00000000       5.88080808       0.00000000       0.00000000       0.00284006
2
Properties=species:S:1:pos:R:3:forces:R:3 energy=-2.8312361029317112 pbc="F F F"
Sb       0.00000000       0.00000000       0.00000000       0.00000000       0.00000000       0.00524004
Sb       0.00000000       0.00000000       5.94040404       0.00000000       0.00000000      -0.00524004
2
Properties=species:S:1:pos:R:3:forces:R:3 energy=-2.8307929319701075 pbc="F F F"
Sb       0.00000000       0.00000000       0.00000000       0.00000000       0.00000000       0.00839876
Sb       0.00000000       0.00000000       6.00000000       0.00000000       0.00000000      -0.00839876
