2
Properties=species:S:1:pos:R:3:forces:R:3 energy=23405.065911784204 pbc="F F F"
Se       0.00000000       0.00000000       0.00000000       0.00000000       0.00000000 -527739.43750000
Se       0.00000000       0.00000000       0.10000000       0.00000000       0.00000000  527739.43750000
2
Properties=species:S:1:pos:R:3:forces:R:3 energy=7568.969720377953 pbc="F F F"
Se       0.00000000       0.00000000       0.00000000       0.00000000       0.00000000 -121053.32812500
Se       0.00000000       0.00000000       0.15959596       0.00000000       0.00000000  121053.32812500
2
Properties=species:S:1:pos:R:3:forces:R:3 energy=3324.5214781904533 pbc="F F F"
Se       0.00000000       0.00000000       0.00000000       0.00000000       0.00000000  -39374.11328125
Se       0.00000000       0.00000000       0.21919192       0.00000000       0.00000000   39374.11328125
2
Properties=species:S:1:pos:R:3:forces:R:3 energy=1811.083001631121 pbc="F F F"
Se       0.00000000       0.00000000       0.00000000       0.00000000       0.00000000  -15673.81250000
Se       0.00000000       0.00000000       0.27878788       0.00000000       0.00000000   15673.81250000
2
Properties=species:S:1:pos:R:3:forces:R:3 energy=1170.425286787371 pbc="F F F"
Se       0.00000000       0.00000000       0.00000000       0.00000000       0.00000000   -7143.50878906
Se       0.00000000       0.00000000       0.33838384       0.00000000       0.00000000    7143.50878906
2
Properties=species:S:1:pos:R:3:forces:R:3 energy=862.8322692219174 pbc="F F F"
Se       0.00000000       0.00000000       0.00000000       0.00000000       0.00000000   -3671.62792969
Se       0.00000000       0.00000000       0.39797980       0.00000000       0.00000000    3671.62792969
2
Properties=species:S:1:pos:R:3:forces:R:3 energy=694.0739074213503 pbc="F F F"
Se       0.00000000       0.00000000       0.00000000       0.00000000       0.00000000   -2203.25463867
Se       0.00000000       0.00000000       0.45757576       0.00000000       0.00000000    2203.25463867
2
Properties=species:S:1:pos:R:3:forces:R:3 energy=582.9018493507276 pbc="F F F"
Se       0.00000000       0.00000000       0.00000000       0.00000000       0.00000000   -1623.66162109
Se       0.00000000       0.00000000       0.51717172       0.00000000       0.00000000    1623.66162109
2
Properties=species:S:1:pos:R:3:forces:R:3 energy=491.19588628248624 pbc="F F F"
Se       0.00000000       0.00000000       0.00000000       0.00000000       0.00000000   -1485.11352539
Se       0.00000000       0.00000000       0.57676768       0.00000000       0.00000000    1485.11352539
2
Properties=species:S:1:pos:R:3:forces:R:3 energy=404.146234287415 pbc="F F F"
Se       0.00000000       0.00000000       0.00000000       0.00000000       0.00000000   -1434.90246582
Se       0.00000000       0.00000000       0.63636364       0.00000000       0.00000000    1434.90246582
2
Properties=species:S:1:pos:R:3:forces:R:3 energy=325.6749209819149 pbc="F F F"
Se       0.00000000       0.00000000       0.00000000       0.00000000       0.00000000   -1123.28723145
Se       0.00000000       0.00000000       0.69595960       0.00000000       0.00000000    1123.28723145
2
Properties=species:S:1:pos:R:3:forces:R:3 energy=267.81896421676197 pbc="F F F"
Se       0.00000000       0.00000000       0.00000000       0.00000000       0.00000000    -859.09411621
Se       0.00000000       0.00000000       0.75555556       0.00000000       0.00000000     859.09411621
2
Properties=species:S:1:pos:R:3:forces:R:3 energy=220.14344275898594 pbc="F F F"
Se       0.00000000       0.00000000       0.00000000       0.00000000       0.00000000    -740.27502441
Se       0.00000000       0.00000000       0.81515152       0.00000000       0.00000000     740.27502441
2
Properties=species:S:1:pos:R:3:forces:R:3 energy=180.5107681582955 pbc="F F F"
Se       0.00000000       0.00000000       0.00000000       0.00000000       0.00000000    -589.27197266
Se       0.00000000       0.00000000       0.87474747       0.00000000       0.00000000     589.27197266
2
Properties=species:S:1:pos:R:3:forces:R:3 energy=149.04055412550798 pbc="F F F"
Se       0.00000000       0.00000000       0.00000000       0.00000000       0.00000000    -476.48025513
Se       0.00000000       0.00000000       0.93434343       0.00000000       0.00000000     476.48025513
2
Properties=species:S:1:pos:R:3:forces:R:3 energy=122.91652417368684 pbc="F F F"
Se       0.00000000       0.00000000       0.00000000       0.00000000       0.00000000    -404.10256958
Se       0.00000000       0.00000000       0.99393939       0.00000000       0.00000000     404.10256958
2
Properties=species:S:1:pos:R:3:forces:R:3 energy=100.55116924576114 pbc="F F F"
Se       0.00000000       0.00000000       0.00000000       0.00000000       0.00000000    -348.63189697
Se       0.00000000       0.00000000       1.05353535       0.00000000       0.00000000     348.63189697
2
Properties=species:S:1:pos:R:3:forces:R:3 energy=81.15425965524139 pbc="F F F"
Se       0.00000000       0.00000000       0.00000000       0.00000000       0.00000000    -303.60656738
Se       0.00000000       0.00000000       1.11313131       0.00000000       0.00000000     303.60656738
2
Properties=species:S:1:pos:R:3:forces:R:3 energy=64.28686120266859 pbc="F F F"
Se       0.00000000       0.00000000       0.00000000       0.00000000       0.00000000    -262.40399170
Se       0.00000000       0.00000000       1.17272727       0.00000000       0.00000000     262.40399170
2
Properties=species:S:1:pos:R:3:forces:R:3 energy=49.902156266892824 pbc="F F F"
Se       0.00000000       0.00000000       0.00000000       0.00000000       0.00000000    -220.29246521
Se       0.00000000       0.00000000       1.23232323       0.00000000       0.00000000     220.29246521
2
Properties=species:S:1:pos:R:3:forces:R:3 energy=37.980590896632016 pbc="F F F"
Se       0.00000000       0.00000000       0.00000000       0.00000000       0.00000000    -180.75901794
Se       0.00000000       0.00000000       1.29191919       0.00000000       0.00000000     180.75901794
2
Properties=species:S:1:pos:R:3:forces:R:3 energy=28.20786286600788 pbc="F F F"
Se       0.00000000       0.00000000       0.00000000       0.00000000       0.00000000    -148.37474060
Se       0.00000000       0.00000000       1.35151515       0.00000000       0.00000000     148.37474060
2
Properties=species:S:1:pos:R:3:forces:R:3 energy=20.20352885228032 pbc="F F F"
Se       0.00000000       0.00000000       0.00000000       0.00000000       0.00000000    -120.66870880
Se       0.00000000       0.00000000       1.41111111       0.00000000       0.00000000     120.66870880
2
Properties=species:S:1:pos:R:3:forces:R:3 energy=13.785963787013682 pbc="F F F"
Se       0.00000000       0.00000000       0.00000000       0.00000000       0.00000000     -95.08524323
Se       0.00000000       0.00000000       1.47070707       0.00000000       0.00000000      95.08524323
2
Properties=species:S:1:pos:R:3:forces:R:3 energy=8.805482146316937 pbc="F F F"
Se       0.00000000       0.00000000       0.00000000       0.00000000       0.00000000     -72.74526215
Se       0.00000000       0.00000000       1.53030303       0.00000000       0.00000000      72.74526215
2
Properties=species:S:1:pos:R:3:forces:R:3 energy=5.025078606062581 pbc="F F F"
Se       0.00000000       0.00000000       0.00000000       0.00000000       0.00000000     -54.88856888
Se       0.00000000       0.00000000       1.58989899       0.00000000       0.00000000      54.88856888
2
Properties=species:S:1:pos:R:3:forces:R:3 energy=2.178214042411925 pbc="F F F"
Se       0.00000000       0.00000000       0.00000000       0.00000000       0.00000000     -41.29070282
Se       0.00000000       0.00000000       1.64949495       0.00000000       0.00000000      41.29070282
2
Properties=species:S:1:pos:R:3:forces:R:3 energy=0.036889139973288375 pbc="F F F"
Se       0.00000000       0.00000000       0.00000000       0.00000000       0.00000000     -31.05180931
Se       0.00000000       0.00000000       1.70909091       0.00000000       0.00000000      31.05180931
2
Properties=species:S:1:pos:R:3:forces:R:3 energy=-1.5721018920692675 pbc="F F F"
Se       0.00000000       0.00000000       0.00000000       0.00000000       0.00000000     -23.29637146
Se       0.00000000       0.00000000       1.76868687       0.00000000       0.00000000      23.29637146
2
Properties=species:S:1:pos:R:3:forces:R:3 energy=-2.775612531748898 pbc="F F F"
Se       0.00000000       0.00000000       0.00000000       0.00000000       0.00000000     -17.34725761
Se       0.00000000       0.00000000       1.82828283       0.00000000       0.00000000      17.34725761
2
Properties=species:S:1:pos:R:3:forces:R:3 energy=-3.665655438046733 pbc="F F F"
Se       0.00000000       0.00000000       0.00000000       0.00000000       0.00000000     -12.70709991
Se       0.00000000       0.00000000       1.88787879       0.00000000       0.00000000      12.70709991
2
Properties=species:S:1:pos:R:3:forces:R:3 energy=-4.30924564629333 pbc="F F F"
Se       0.00000000       0.00000000       0.00000000       0.00000000       0.00000000      -9.03020763
Se       0.00000000       0.00000000       1.94747475       0.00000000       0.00000000       9.03020763
2
Properties=species:S:1:pos:R:3:forces:R:3 energy=-4.756649965879101 pbc="F F F"
Se       0.00000000       0.00000000       0.00000000       0.00000000       0.00000000      -6.09410477
Se       0.00000000       0.00000000       2.00707071       0.00000000       0.00000000       6.09410477
2
Properties=species:S:1:pos:R:3:forces:R:3 energy=-5.047446749237875 pbc="F F F"
Se       0.00000000       0.00000000       0.00000000       0.00000000       0.00000000      -3.75468993
Se       0.00000000       0.00000000       2.06666667       0.00000000       0.00000000       3.75468993
2
Properties=species:S:1:pos:R:3:forces:R:3 energy=-5.213906443887168 pbc="F F F"
Se       0.00000000       0.00000000       0.00000000       0.00000000       0.00000000      -1.90544915
Se       0.00000000       0.00000000       2.12626263       0.00000000       0.00000000       1.90544915
2
Properties=species:S:1:pos:R:3:forces:R:3 energy=-5.282486058766624 pbc="F F F"
Se       0.00000000       0.00000000       0.00000000       0.00000000       0.00000000      -0.45549732
Se       0.00000000       0.00000000       2.18585859       0.00000000       0.00000000       0.45549732
2
Properties=species:S:1:pos:R:3:forces:R:3 energy=-5.27448573566281 pbc="F F F"
Se       0.00000000       0.00000000       0.00000000       0.00000000       0.00000000       0.67772126
Se       0.00000000       0.00000000       2.24545455       0.00000000       0.00000000      -0.67772126
2
Properties=species:S:1:pos:R:3:forces:R:3 energy=-5.206493671619872 pbc="F F F"
Se       0.00000000       0.00000000       0.00000000       0.00000000       0.00000000       1.56969857
Se       0.00000000       0.00000000       2.30505051       0.00000000       0.00000000      -1.56969857
2
Properties=species:S:1:pos:R:3:forces:R:3 energy=-5.090848140803775 pbc="F F F"
Se       0.00000000       0.00000000       0.00000000       0.00000000       0.00000000       2.28713775
Se       0.00000000       0.00000000       2.36464646       0.00000000       0.00000000      -2.28713775
2
Properties=species:S:1:pos:R:3:forces:R:3 energy=-4.936306025029768 pbc="F F F"
Se       0.00000000       0.00000000       0.00000000       0.00000000       0.00000000       2.88193941
Se       0.00000000       0.00000000       2.42424242       0.00000000       0.00000000      -2.88193941
2
Properties=species:S:1:pos:R:3:forces:R:3 energy=-4.7492176723320885 pbc="F F F"
Se       0.00000000       0.00000000       0.00000000       0.00000000       0.00000000       3.38139176
Se       0.00000000       0.00000000       2.48383838       0.00000000       0.00000000      -3.38139176
2
Properties=species:S:1:pos:R:3:forces:R:3 energy=-4.53522502345412 pbc="F F F"
Se       0.00000000       0.00000000       0.00000000       0.00000000       0.00000000       3.78162479
Se       0.00000000       0.00000000       2.54343434       0.00000000       0.00000000      -3.78162479
2
Properties=species:S:1:pos:R:3:forces:R:3 energy=-4.301007379208831 pbc="F F F"
Se       0.00000000       0.00000000       0.00000000       0.00000000       0.00000000       4.05437946
Se       0.00000000       0.00000000       2.60303030       0.00000000       0.00000000      -4.05437946
2
Properties=species:S:1:pos:R:3:forces:R:3 energy=-4.055132287045276 pbc="F F F"
Se       0.00000000       0.00000000       0.00000000       0.00000000       0.00000000       4.16897249
Se       0.00000000       0.00000000       2.66262626       0.00000000       0.00000000      -4.16897249
2
Properties=species:S:1:pos:R:3:forces:R:3 energy=-3.8074202197236526 pbc="F F F"
Se       0.00000000       0.00000000       0.00000000       0.00000000       0.00000000       4.11754227
Se       0.00000000       0.00000000       2.72222222       0.00000000       0.00000000      -4.11754227
2
Properties=species:S:1:pos:R:3:forces:R:3 energy=-3.5671682832091616 pbc="F F F"
Se       0.00000000       0.00000000       0.00000000       0.00000000       0.00000000       3.92530179
Se       0.00000000       0.00000000       2.78181818       0.00000000       0.00000000      -3.92530179
2
Properties=species:S:1:pos:R:3:forces:R:3 energy=-3.3414156193068205 pbc="F F F"
Se       0.00000000       0.00000000       0.00000000       0.00000000       0.00000000       3.63951993
Se       0.00000000       0.00000000       2.84141414       0.00000000       0.00000000      -3.63951993
2
Properties=species:S:1:pos:R:3:forces:R:3 energy=-3.1342551505802994 pbc="F F F"
Se       0.00000000       0.00000000       0.00000000       0.00000000       0.00000000       3.30855155
Se       0.00000000       0.00000000       2.90101010       0.00000000       0.00000000      -3.30855155
2
Properties=species:S:1:pos:R:3:forces:R:3 energy=-2.9472578030318735 pbc="F F F"
Se       0.00000000       0.00000000       0.00000000       0.00000000       0.00000000       2.96729064
Se       0.00000000       0.00000000       2.96060606       0.00000000       0.00000000      -2.96729064
2
Properties=species:S:1:pos:R:3:forces:R:3 energy=-2.780390011318812 pbc="F F F"
Se       0.00000000       0.00000000       0.00000000       0.00000000       0.00000000       2.63515735
Se       0.00000000       0.00000000       3.02020202       0.00000000       0.00000000      -2.63515735
2
Properties=species:S:1:pos:R:3:forces:R:3 energy=-2.632793715134258 pbc="F F F"
Se       0.00000000       0.00000000       0.00000000       0.00000000       0.00000000       2.32168818
Se       0.00000000       0.00000000       3.07979798       0.00000000       0.00000000      -2.32168818
2
Properties=species:S:1:pos:R:3:forces:R:3 energy=-2.503183879006324 pbc="F F F"
Se       0.00000000       0.00000000       0.00000000       0.00000000       0.00000000       2.03230000
Se       0.00000000       0.00000000       3.13939394       0.00000000       0.00000000      -2.03230000
2
Properties=species:S:1:pos:R:3:forces:R:3 energy=-2.390005272688735 pbc="F F F"
Se       0.00000000       0.00000000       0.00000000       0.00000000       0.00000000       1.77082527
Se       0.00000000       0.00000000       3.19898990       0.00000000       0.00000000      -1.77082527
2
Properties=species:S:1:pos:R:3:forces:R:3 energy=-2.2915175049022607 pbc="F F F"
Se       0.00000000       0.00000000       0.00000000       0.00000000       0.00000000       1.53941631
Se       0.00000000       0.00000000       3.25858586       0.00000000       0.00000000      -1.53941631
2
Properties=species:S:1:pos:R:3:forces:R:3 energy=-2.2059222288140976 pbc="F F F"
Se       0.00000000       0.00000000       0.00000000       0.00000000       0.00000000       1.33798409
Se       0.00000000       0.00000000       3.31818182       0.00000000       0.00000000      -1.33798409
2
Properties=species:S:1:pos:R:3:forces:R:3 energy=-2.1314891497607817 pbc="F F F"
Se       0.00000000       0.00000000       0.00000000       0.00000000       0.00000000       1.16429567
Se       0.00000000       0.00000000       3.37777778       0.00000000       0.00000000      -1.16429567
2
Properties=species:S:1:pos:R:3:forces:R:3 energy=-2.066666766342406 pbc="F F F"
Se       0.00000000       0.00000000       0.00000000       0.00000000       0.00000000       1.01477671
Se       0.00000000       0.00000000       3.43737374       0.00000000       0.00000000      -1.01477671
2
Properties=species:S:1:pos:R:3:forces:R:3 energy=-2.0101334406838323 pbc="F F F"
Se       0.00000000       0.00000000       0.00000000       0.00000000       0.00000000       0.88551700
Se       0.00000000       0.00000000       3.49696970       0.00000000       0.00000000      -0.88551700
2
Properties=species:S:1:pos:R:3:forces:R:3 energy=-1.9607885092550488 pbc="F F F"
Se       0.00000000       0.00000000       0.00000000       0.00000000       0.00000000       0.77297926
Se       0.00000000       0.00000000       3.55656566       0.00000000       0.00000000      -0.77297926
2
Properties=species:S:1:pos:R:3:forces:R:3 energy=-1.917724406072428 pbc="F F F"
Se       0.00000000       0.00000000       0.00000000       0.00000000       0.00000000       0.67436326
Se       0.00000000       0.00000000       3.61616162       0.00000000       0.00000000      -0.67436326
2
Properties=species:S:1:pos:R:3:forces:R:3 energy=-1.8801745512321317 pbc="F F F"
Se       0.00000000       0.00000000       0.00000000       0.00000000       0.00000000       0.58762944
Se       0.00000000       0.00000000       3.67575758       0.00000000       0.00000000      -0.58762944
2
Properties=species:S:1:pos:R:3:forces:R:3 energy=-1.847476653455862 pbc="F F F"
Se       0.00000000       0.00000000       0.00000000       0.00000000       0.00000000       0.51134247
Se       0.00000000       0.00000000       3.73535354       0.00000000       0.00000000      -0.51134247
2
Properties=species:S:1:pos:R:3:forces:R:3 energy=-1.8190394253564992 pbc="F F F"
Se       0.00000000       0.00000000       0.00000000       0.00000000       0.00000000       0.44447684
Se       0.00000000       0.00000000       3.79494949       0.00000000       0.00000000      -0.44447684
2
Properties=species:S:1:pos:R:3:forces:R:3 energy=-1.7943276759412636 pbc="F F F"
Se       0.00000000       0.00000000       0.00000000       0.00000000       0.00000000       0.38621002
Se       0.00000000       0.00000000       3.85454545       0.00000000       0.00000000      -0.38621002
2
Properties=species:S:1:pos:R:3:forces:R:3 energy=-1.7728505303148119 pbc="F F F"
Se       0.00000000       0.00000000       0.00000000       0.00000000       0.00000000       0.33579573
Se       0.00000000       0.00000000       3.91414141       0.00000000       0.00000000      -0.33579573
2
Properties=species:S:1:pos:R:3:forces:R:3 energy=-1.7541620126384379 pbc="F F F"
Se       0.00000000       0.00000000       0.00000000       0.00000000       0.00000000       0.29249662
Se       0.00000000       0.00000000       3.97373737       0.00000000       0.00000000      -0.29249662
2
Properties=species:S:1:pos:R:3:forces:R:3 energy=-1.737860500432744 pbc="F F F"
Se       0.00000000       0.00000000       0.00000000       0.00000000       0.00000000       0.25557896
Se       0.00000000       0.00000000       4.03333333       0.00000000       0.00000000      -0.25557896
2
Properties=species:S:1:pos:R:3:forces:R:3 energy=-1.7235866627577177 pbc="F F F"
Se       0.00000000       0.00000000       0.00000000       0.00000000       0.00000000       0.22432356
Se       0.00000000       0.00000000       4.09292929       0.00000000       0.00000000      -0.22432356
2
Properties=species:S:1:pos:R:3:forces:R:3 energy=-1.7110237838264732 pbc="F F F"
Se       0.00000000       0.00000000       0.00000000       0.00000000       0.00000000       0.19806302
Se       0.00000000       0.00000000       4.15252525       0.00000000       0.00000000      -0.19806302
2
Properties=species:S:1:pos:R:3:forces:R:3 energy=-1.69989202036851 pbc="F F F"
Se       0.00000000       0.00000000       0.00000000       0.00000000       0.00000000       0.17620058
Se       0.00000000       0.00000000       4.21212121       0.00000000       0.00000000      -0.17620058
2
Properties=species:S:1:pos:R:3:forces:R:3 energy=-1.6899450055808538 pbc="F F F"
Se       0.00000000       0.00000000       0.00000000       0.00000000       0.00000000       0.15821144
Se       0.00000000       0.00000000       4.27171717       0.00000000       0.00000000      -0.15821144
2
Properties=species:S:1:pos:R:3:forces:R:3 energy=-1.6809667354313298 pbc="F F F"
Se       0.00000000       0.00000000       0.00000000       0.00000000       0.00000000       0.14363354
Se       0.00000000       0.00000000       4.33131313       0.00000000       0.00000000      -0.14363354
2
Properties=species:S:1:pos:R:3:forces:R:3 energy=-1.6727659599022668 pbc="F F F"
Se       0.00000000       0.00000000       0.00000000       0.00000000       0.00000000       0.13203597
Se       0.00000000       0.00000000       4.39090909       0.00000000       0.00000000      -0.13203597
2
Properties=species:S:1:pos:R:3:forces:R:3 energy=-1.6651780333183333 pbc="F F F"
Se       0.00000000       0.00000000       0.00000000       0.00000000       0.00000000       0.12299687
Se       0.00000000       0.00000000       4.45050505       0.00000000       0.00000000      -0.12299687
2
Properties=species:S:1:pos:R:3:forces:R:3 energy=-1.6580638287916414 pbc="F F F"
Se       0.00000000       0.00000000       0.00000000       0.00000000       0.00000000       0.11607116
Se       0.00000000       0.00000000       4.51010101       0.00000000       0.00000000      -0.11607116
2
Properties=species:S:1:pos:R:3:forces:R:3 energy=-1.6513106301235319 pbc="F F F"
Se       0.00000000       0.00000000       0.00000000       0.00000000       0.00000000       0.11078127
Se       0.00000000       0.00000000       4.56969697       0.00000000       0.00000000      -0.11078127
2
Properties=species:S:1:pos:R:3:forces:R:3 energy=-1.6448371781925126 pbc="F F F"
Se       0.00000000       0.00000000       0.00000000       0.00000000       0.00000000       0.10661235
Se       0.00000000       0.00000000       4.62929293       0.00000000       0.00000000      -0.10661235
2
Properties=species:S:1:pos:R:3:forces:R:3 energy=-1.6385917493504254 pbc="F F F"
Se       0.00000000       0.00000000       0.00000000       0.00000000       0.00000000       0.10304176
Se       0.00000000       0.00000000       4.68888889       0.00000000       0.00000000      -0.10304176
2
Properties=species:S:1:pos:R:3:forces:R:3 energy=-1.632553274239473 pbc="F F F"
Se       0.00000000       0.00000000       0.00000000       0.00000000       0.00000000       0.09957718
Se       0.00000000       0.00000000       4.74848485       0.00000000       0.00000000      -0.09957718
2
Properties=species:S:1:pos:R:3:forces:R:3 energy=-1.626728461722116 pbc="F F F"
Se       0.00000000       0.00000000       0.00000000       0.00000000       0.00000000       0.09583628
Se       0.00000000       0.00000000       4.80808081       0.00000000       0.00000000      -0.09583628
2
Properties=species:S:1:pos:R:3:forces:R:3 energy=-1.621139873576379 pbc="F F F"
Se       0.00000000       0.00000000       0.00000000       0.00000000       0.00000000       0.09162889
Se       0.00000000       0.00000000       4.86767677       0.00000000       0.00000000      -0.09162889
2
Properties=species:S:1:pos:R:3:forces:R:3 energy=-1.6158142388176542 pbc="F F F"
Se       0.00000000       0.00000000       0.00000000       0.00000000       0.00000000       0.08705926
Se       0.00000000       0.00000000       4.92727273       0.00000000       0.00000000      -0.08705926
2
Properties=species:S:1:pos:R:3:forces:R:3 energy=-1.6107612867142262 pbc="F F F"
Se       0.00000000       0.00000000       0.00000000       0.00000000       0.00000000       0.08259127
Se       0.00000000       0.00000000       4.98686869       0.00000000       0.00000000      -0.08259127
2
Properties=species:S:1:pos:R:3:forces:R:3 energy=-1.605952474056752 pbc="F F F"
Se       0.00000000       0.00000000       0.00000000       0.00000000       0.00000000       0.07904693
Se       0.00000000       0.00000000       5.04646465       0.00000000       0.00000000      -0.07904693
2
Properties=species:S:1:pos:R:3:forces:R:3 energy=-1.601301440378463 pbc="F F F"
Se       0.00000000       0.00000000       0.00000000       0.00000000       0.00000000       0.07744201
Se       0.00000000       0.00000000       5.10606061       0.00000000       0.00000000      -0.07744201
2
Properties=species:S:1:pos:R:3:forces:R:3 energy=-1.5966655255817492 pbc="F F F"
Se       0.00000000       0.00000000       0.00000000       0.00000000       0.00000000       0.07860830
Se       0.00000000       0.00000000       5.16565657       0.00000000       0.00000000      -0.07860830
2
Properties=species:S:1:pos:R:3:forces:R:3 energy=-1.5918736839188474 pbc="F F F"
Se       0.00000000       0.00000000       0.00000000       0.00000000       0.00000000       0.08263740
Se       0.00000000       0.00000000       5.22525253       0.00000000       0.00000000      -0.08263740
2
Properties=species:S:1:pos:R:3:forces:R:3 energy=-1.5867811000614316 pbc="F F F"
Se       0.00000000       0.00000000       0.00000000       0.00000000       0.00000000       0.08840419
Se       0.00000000       0.00000000       5.28484848       0.00000000       0.00000000      -0.08840419
2
Properties=species:S:1:pos:R:3:forces:R:3 energy=-1.5813466137422867 pbc="F F F"
Se       0.00000000       0.00000000       0.00000000       0.00000000       0.00000000       0.09366179
Se       0.00000000       0.00000000       5.34444444       0.00000000       0.00000000      -0.09366179
2
Properties=species:S:1:pos:R:3:forces:R:3 energy=-1.5756718275298802 pbc="F F F"
Se       0.00000000       0.00000000       0.00000000       0.00000000       0.00000000       0.09622876
Se       0.00000000       0.00000000       5.40404040       0.00000000       0.00000000      -0.09622876
2
Properties=species:S:1:pos:R:3:forces:R:3 energy=-1.5699367631143608 pbc="F F F"
Se       0.00000000       0.00000000       0.00000000       0.00000000       0.00000000       0.09577006
Se       0.00000000       0.00000000       5.46363636       0.00000000       0.00000000      -0.09577006
2
Properties=species:S:1:pos:R:3:forces:R:3 energy=-1.5643083263921813 pbc="F F F"
Se       0.00000000       0.00000000       0.00000000       0.00000000       0.00000000       0.09269810
Se       0.00000000       0.00000000       5.52323232       0.00000000       0.00000000      -0.09269810
2
Properties=species:S:1:pos:R:3:forces:R:3 energy=-1.5589789502828477 pbc="F F F"
Se       0.00000000       0.00000000       0.00000000       0.00000000       0.00000000       0.08521204
Se       0.00000000       0.00000000       5.58282828       0.00000000       0.00000000      -0.08521204
2
Properties=species:S:1:pos:R:3:forces:R:3 energy=-1.5542576638945125 pbc="F F F"
Se       0.00000000       0.00000000       0.00000000       0.00000000       0.00000000       0.07248933
Se       0.00000000       0.00000000       5.64242424       0.00000000       0.00000000      -0.07248933
2
Properties=species:S:1:pos:R:3:forces:R:3 energy=-1.5503926267177668 pbc="F F F"
Se       0.00000000       0.00000000       0.00000000       0.00000000       0.00000000       0.05710332
Se       0.00000000       0.00000000       5.70202020       0.00000000       0.00000000      -0.05710332
2
Properties=species:S:1:pos:R:3:forces:R:3 energy=-1.5473988609068177 pbc="F F F"
Se       0.00000000       0.00000000       0.00000000       0.00000000       0.00000000       0.04417071
Se       0.00000000       0.00000000       5.76161616       0.00000000       0.00000000      -0.04417071
2
Properties=species:S:1:pos:R:3:forces:R:3 energy=-1.545087104679292 pbc="F F F"
Se       0.00000000       0.00000000       0.00000000       0.00000000       0.00000000       0.03316810
Se       0.00000000       0.00000000       5.82121212       0.00000000       0.00000000      -0.03316810
2
Properties=species:S:1:pos:R:3:forces:R:3 energy=-1.5434995365247446 pbc="F F F"
Se       0.00000000       0.00000000       0.00000000       0.00000000       0.00000000       0.02000146
Se       0.00000000       0.00000000       5.88080808       0.00000000       0.00000000      -0.02000146
2
Properties=species:S:1:pos:R:3:forces:R:3 energy=-1.5426719431685378 pbc="F F F"
Se       0.00000000       0.00000000       0.00000000       0.00000000       0.00000000       0.00830535
Se       0.00000000       0.00000000       5.94040404       0.00000000       0.00000000      -0.00830535
2
Properties=species:S:1:pos:R:3:forces:R:3 energy=-1.5423645552914582 pbc="F F F"
Se       0.00000000       0.00000000       0.00000000       0.00000000       0.00000000       0.00354915
Se       0.00000000       0.00000000       6.00000000       0.00000000       0.00000000      -0.00354915
