2
Properties=species:S:1:pos:R:3:forces:R:3 energy=67818.89646123588 pbc="F F F"
Ta       0.00000000       0.00000000       0.00000000       0.00000000       0.00000000 -1919328.50000000
Ta       0.00000000       0.00000000       0.10000000       0.00000000       0.00000000 1919328.50000000
2
Properties=species:S:1:pos:R:3:forces:R:3 energy=12686.625953423389 pbc="F F F"
Ta       0.00000000       0.00000000       0.00000000       0.00000000       0.00000000 -395155.25000000
Ta       0.00000000       0.00000000       0.15959596       0.00000000       0.00000000  395155.25000000
2
Properties=species:S:1:pos:R:3:forces:R:3 energy=-655.4840929633307 pbc="F F F"
Ta       0.00000000       0.00000000       0.00000000       0.00000000       0.00000000 -116525.55468750
Ta       0.00000000       0.00000000       0.21919192       0.00000000       0.00000000  116525.55468750
2
Properties=species:S:1:pos:R:3:forces:R:3 energy=-4849.157249701612 pbc="F F F"
Ta       0.00000000       0.00000000       0.00000000       0.00000000       0.00000000  -38107.41796875
Ta       0.00000000       0.00000000       0.27878788       0.00000000       0.00000000   38107.41796875
2
Properties=species:S:1:pos:R:3:forces:R:3 energy=-6092.0566637609445 pbc="F F F"
Ta       0.00000000       0.00000000       0.00000000       0.00000000       0.00000000   -7460.00097656
Ta       0.00000000       0.00000000       0.33838384       0.00000000       0.00000000    7460.00097656
2
Properties=species:S:1:pos:R:3:forces:R:3 energy=-6004.4760973546945 pbc="F F F"
Ta       0.00000000       0.00000000       0.00000000       0.00000000       0.00000000    9132.36523438
Ta       0.00000000       0.00000000       0.39797980       0.00000000       0.00000000   -9132.36523438
2
Properties=species:S:1:pos:R:3:forces:R:3 energy=-5108.566429379608 pbc="F F F"
Ta       0.00000000       0.00000000       0.00000000       0.00000000       0.00000000   20215.87695312
Ta       0.00000000       0.00000000       0.45757576       0.00000000       0.00000000  -20215.87695312
2
Properties=species:S:1:pos:R:3:forces:R:3 energy=-3686.56130241698 pbc="F F F"
Ta       0.00000000       0.00000000       0.00000000       0.00000000       0.00000000   26607.16210938
Ta       0.00000000       0.00000000       0.51717172       0.00000000       0.00000000  -26607.16210938
2
Properties=species:S:1:pos:R:3:forces:R:3 energy=-2044.1886217402462 pbc="F F F"
Ta       0.00000000       0.00000000       0.00000000       0.00000000       0.00000000   27941.75195312
Ta       0.00000000       0.00000000       0.57676768       0.00000000       0.00000000  -27941.75195312
2
Properties=species:S:1:pos:R:3:forces:R:3 energy=-564.131736942943 pbc="F F F"
Ta       0.00000000       0.00000000       0.00000000       0.00000000       0.00000000   20705.00000000
Ta       0.00000000       0.00000000       0.63636364       0.00000000       0.00000000  -20705.00000000
2
Properties=species:S:1:pos:R:3:forces:R:3 energy=348.02500137632086 pbc="F F F"
Ta       0.00000000       0.00000000       0.00000000       0.00000000       0.00000000    9783.94628906
Ta       0.00000000       0.00000000       0.69595960       0.00000000       0.00000000   -9783.94628906
2
Properties=species:S:1:pos:R:3:forces:R:3 energy=608.0394057397201 pbc="F F F"
Ta       0.00000000       0.00000000       0.00000000       0.00000000       0.00000000      -7.58441925
Ta       0.00000000       0.00000000       0.75555556       0.00000000       0.00000000       7.58441925
2
Properties=species:S:1:pos:R:3:forces:R:3 energy=511.9532241941298 pbc="F F F"
Ta       0.00000000       0.00000000       0.00000000       0.00000000       0.00000000   -2155.54907227
Ta       0.00000000       0.00000000       0.81515152       0.00000000       0.00000000    2155.54907227
2
Properties=species:S:1:pos:R:3:forces:R:3 energy=400.69803634206494 pbc="F F F"
Ta       0.00000000       0.00000000       0.00000000       0.00000000       0.00000000   -1737.68212891
Ta       0.00000000       0.00000000       0.87474747       0.00000000       0.00000000    1737.68212891
2
Properties=species:S:1:pos:R:3:forces:R:3 energy=307.6379169095636 pbc="F F F"
Ta       0.00000000       0.00000000       0.00000000       0.00000000       0.00000000   -1404.73242188
Ta       0.00000000       0.00000000       0.93434343       0.00000000       0.00000000    1404.73242188
2
Properties=species:S:1:pos:R:3:forces:R:3 energy=237.45473541930104 pbc="F F F"
Ta       0.00000000       0.00000000       0.00000000       0.00000000       0.00000000    -924.32885742
Ta       0.00000000       0.00000000       0.99393939       0.00000000       0.00000000     924.32885742
2
Properties=species:S:1:pos:R:3:forces:R:3 energy=187.66710761294027 pbc="F F F"
Ta       0.00000000       0.00000000       0.00000000       0.00000000       0.00000000    -772.09973145
Ta       0.00000000       0.00000000       1.05353535       0.00000000       0.00000000     772.09973145
2
Properties=species:S:1:pos:R:3:forces:R:3 energy=144.62630610199957 pbc="F F F"
Ta       0.00000000       0.00000000       0.00000000       0.00000000       0.00000000    -671.09771729
Ta       0.00000000       0.00000000       1.11313131       0.00000000       0.00000000     671.09771729
2
Properties=species:S:1:pos:R:3:forces:R:3 energy=108.11557219012984 pbc="F F F"
Ta       0.00000000       0.00000000       0.00000000       0.00000000       0.00000000    -551.14410400
Ta       0.00000000       0.00000000       1.17272727       0.00000000       0.00000000     551.14410400
2
Properties=species:S:1:pos:R:3:forces:R:3 energy=78.92192373761051 pbc="F F F"
Ta       0.00000000       0.00000000       0.00000000       0.00000000       0.00000000    -431.50415039
Ta       0.00000000       0.00000000       1.23232323       0.00000000       0.00000000     431.50415039
2
Properties=species:S:1:pos:R:3:forces:R:3 energy=56.199978101529275 pbc="F F F"
Ta       0.00000000       0.00000000       0.00000000       0.00000000       0.00000000    -335.29830933
Ta       0.00000000       0.00000000       1.29191919       0.00000000       0.00000000     335.29830933
2
Properties=species:S:1:pos:R:3:forces:R:3 energy=38.546876598440406 pbc="F F F"
Ta       0.00000000       0.00000000       0.00000000       0.00000000       0.00000000    -259.50164795
Ta       0.00000000       0.00000000       1.35151515       0.00000000       0.00000000     259.50164795
2
Properties=species:S:1:pos:R:3:forces:R:3 energy=25.04470394429425 pbc="F F F"
Ta       0.00000000       0.00000000       0.00000000       0.00000000       0.00000000    -195.57273865
Ta       0.00000000       0.00000000       1.41111111       0.00000000       0.00000000     195.57273865
2
Properties=species:S:1:pos:R:3:forces:R:3 energy=14.971927390295438 pbc="F F F"
Ta       0.00000000       0.00000000       0.00000000       0.00000000       0.00000000    -144.75289917
Ta       0.00000000       0.00000000       1.47070707       0.00000000       0.00000000     144.75289917
2
Properties=species:S:1:pos:R:3:forces:R:3 energy=7.539058703225075 pbc="F F F"
Ta       0.00000000       0.00000000       0.00000000       0.00000000       0.00000000    -106.58812714
Ta       0.00000000       0.00000000       1.53030303       0.00000000       0.00000000     106.58812714
2
Properties=species:S:1:pos:R:3:forces:R:3 energy=2.065828736784818 pbc="F F F"
Ta       0.00000000       0.00000000       0.00000000       0.00000000       0.00000000     -78.58068085
Ta       0.00000000       0.00000000       1.58989899       0.00000000       0.00000000      78.58068085
2
Properties=species:S:1:pos:R:3:forces:R:3 energy=-1.9812387476753883 pbc="F F F"
Ta       0.00000000       0.00000000       0.00000000       0.00000000       0.00000000     -58.33620834
Ta       0.00000000       0.00000000       1.64949495       0.00000000       0.00000000      58.33620834
2
Properties=species:S:1:pos:R:3:forces:R:3 energy=-4.997078290349785 pbc="F F F"
Ta       0.00000000       0.00000000       0.00000000       0.00000000       0.00000000     -43.62728882
Ta       0.00000000       0.00000000       1.70909091       0.00000000       0.00000000      43.62728882
2
Properties=species:S:1:pos:R:3:forces:R:3 energy=-7.2549365169909175 pbc="F F F"
Ta       0.00000000       0.00000000       0.00000000       0.00000000       0.00000000     -32.65132523
Ta       0.00000000       0.00000000       1.76868687       0.00000000       0.00000000      32.65132523
2
Properties=species:S:1:pos:R:3:forces:R:3 energy=-8.939380262854504 pbc="F F F"
Ta       0.00000000       0.00000000       0.00000000       0.00000000       0.00000000     -24.23323822
Ta       0.00000000       0.00000000       1.82828283       0.00000000       0.00000000      24.23323822
2
Properties=species:S:1:pos:R:3:forces:R:3 energy=-10.179677074786643 pbc="F F F"
Ta       0.00000000       0.00000000       0.00000000       0.00000000       0.00000000     -17.65443230
Ta       0.00000000       0.00000000       1.88787879       0.00000000       0.00000000      17.65443230
2
Properties=species:S:1:pos:R:3:forces:R:3 energy=-11.071622915313363 pbc="F F F"
Ta       0.00000000       0.00000000       0.00000000       0.00000000       0.00000000     -12.48819065
Ta       0.00000000       0.00000000       1.94747475       0.00000000       0.00000000      12.48819065
2
Properties=species:S:1:pos:R:3:forces:R:3 energy=-11.69047879909219 pbc="F F F"
Ta       0.00000000       0.00000000       0.00000000       0.00000000       0.00000000      -8.44535065
Ta       0.00000000       0.00000000       2.00707071       0.00000000       0.00000000       8.44535065
2
Properties=species:S:1:pos:R:3:forces:R:3 energy=-12.095409742877763 pbc="F F F"
Ta       0.00000000       0.00000000       0.00000000       0.00000000       0.00000000      -5.26782846
Ta       0.00000000       0.00000000       2.06666667       0.00000000       0.00000000       5.26782846
2
Properties=species:S:1:pos:R:3:forces:R:3 energy=-12.331046944240727 pbc="F F F"
Ta       0.00000000       0.00000000       0.00000000       0.00000000       0.00000000      -2.73092771
Ta       0.00000000       0.00000000       2.12626263       0.00000000       0.00000000       2.73092771
2
Properties=species:S:1:pos:R:3:forces:R:3 energy=-12.430264130243415 pbc="F F F"
Ta       0.00000000       0.00000000       0.00000000       0.00000000       0.00000000      -0.66721702
Ta       0.00000000       0.00000000       2.18585859       0.00000000       0.00000000       0.66721702
2
Properties=species:S:1:pos:R:3:forces:R:3 energy=-12.418062113685052 pbc="F F F"
Ta       0.00000000       0.00000000       0.00000000       0.00000000       0.00000000       1.01663280
Ta       0.00000000       0.00000000       2.24545455       0.00000000       0.00000000      -1.01663280
2
Properties=species:S:1:pos:R:3:forces:R:3 energy=-12.3163527751011 pbc="F F F"
Ta       0.00000000       0.00000000       0.00000000       0.00000000       0.00000000       2.33381772
Ta       0.00000000       0.00000000       2.30505051       0.00000000       0.00000000      -2.33381772
2
Properties=species:S:1:pos:R:3:forces:R:3 energy=-12.147526438271061 pbc="F F F"
Ta       0.00000000       0.00000000       0.00000000       0.00000000       0.00000000       3.26812887
Ta       0.00000000       0.00000000       2.36464646       0.00000000       0.00000000      -3.26812887
2
Properties=species:S:1:pos:R:3:forces:R:3 energy=-11.933980628233426 pbc="F F F"
Ta       0.00000000       0.00000000       0.00000000       0.00000000       0.00000000       3.84392929
Ta       0.00000000       0.00000000       2.42424242       0.00000000       0.00000000      -3.84392929
2
Properties=species:S:1:pos:R:3:forces:R:3 energy=-11.694934960467956 pbc="F F F"
Ta       0.00000000       0.00000000       0.00000000       0.00000000       0.00000000       4.13982916
Ta       0.00000000       0.00000000       2.48383838       0.00000000       0.00000000      -4.13982916
2
Properties=species:S:1:pos:R:3:forces:R:3 energy=-11.444193636896019 pbc="F F F"
Ta       0.00000000       0.00000000       0.00000000       0.00000000       0.00000000       4.25130415
Ta       0.00000000       0.00000000       2.54343434       0.00000000       0.00000000      -4.25130415
2
Properties=species:S:1:pos:R:3:forces:R:3 energy=-11.190346826064928 pbc="F F F"
Ta       0.00000000       0.00000000       0.00000000       0.00000000       0.00000000       4.25437832
Ta       0.00000000       0.00000000       2.60303030       0.00000000       0.00000000      -4.25437832
2
Properties=species:S:1:pos:R:3:forces:R:3 energy=-10.938331076590655 pbc="F F F"
Ta       0.00000000       0.00000000       0.00000000       0.00000000       0.00000000       4.19516659
Ta       0.00000000       0.00000000       2.66262626       0.00000000       0.00000000      -4.19516659
2
Properties=species:S:1:pos:R:3:forces:R:3 energy=-10.69108281672068 pbc="F F F"
Ta       0.00000000       0.00000000       0.00000000       0.00000000       0.00000000       4.09695959
Ta       0.00000000       0.00000000       2.72222222       0.00000000       0.00000000      -4.09695959
2
Properties=species:S:1:pos:R:3:forces:R:3 energy=-10.450565083802678 pbc="F F F"
Ta       0.00000000       0.00000000       0.00000000       0.00000000       0.00000000       3.97040629
Ta       0.00000000       0.00000000       2.78181818       0.00000000       0.00000000      -3.97040629
2
Properties=species:S:1:pos:R:3:forces:R:3 energy=-10.21830555767835 pbc="F F F"
Ta       0.00000000       0.00000000       0.00000000       0.00000000       0.00000000       3.82041192
Ta       0.00000000       0.00000000       2.84141414       0.00000000       0.00000000      -3.82041192
2
Properties=species:S:1:pos:R:3:forces:R:3 energy=-9.99561252887779 pbc="F F F"
Ta       0.00000000       0.00000000       0.00000000       0.00000000       0.00000000       3.64982796
Ta       0.00000000       0.00000000       2.90101010       0.00000000       0.00000000      -3.64982796
2
Properties=species:S:1:pos:R:3:forces:R:3 energy=-9.783618464355536 pbc="F F F"
Ta       0.00000000       0.00000000       0.00000000       0.00000000       0.00000000       3.46213412
Ta       0.00000000       0.00000000       2.96060606       0.00000000       0.00000000      -3.46213412
2
Properties=species:S:1:pos:R:3:forces:R:3 energy=-9.583165283314482 pbc="F F F"
Ta       0.00000000       0.00000000       0.00000000       0.00000000       0.00000000       3.26391959
Ta       0.00000000       0.00000000       3.02020202       0.00000000       0.00000000      -3.26391959
2
Properties=species:S:1:pos:R:3:forces:R:3 energy=-9.394584388387042 pbc="F F F"
Ta       0.00000000       0.00000000       0.00000000       0.00000000       0.00000000       3.06575203
Ta       0.00000000       0.00000000       3.07979798       0.00000000       0.00000000      -3.06575203
2
Properties=species:S:1:pos:R:3:forces:R:3 energy=-9.217528662410235 pbc="F F F"
Ta       0.00000000       0.00000000       0.00000000       0.00000000       0.00000000       2.87862301
Ta       0.00000000       0.00000000       3.13939394       0.00000000       0.00000000      -2.87862301
2
Properties=species:S:1:pos:R:3:forces:R:3 energy=-9.051158026005742 pbc="F F F"
Ta       0.00000000       0.00000000       0.00000000       0.00000000       0.00000000       2.70713854
Ta       0.00000000       0.00000000       3.19898990       0.00000000       0.00000000      -2.70713854
2
Properties=species:S:1:pos:R:3:forces:R:3 energy=-8.894609125368298 pbc="F F F"
Ta       0.00000000       0.00000000       0.00000000       0.00000000       0.00000000       2.54823422
Ta       0.00000000       0.00000000       3.25858586       0.00000000       0.00000000      -2.54823422
2
Properties=species:S:1:pos:R:3:forces:R:3 energy=-8.74726998158954 pbc="F F F"
Ta       0.00000000       0.00000000       0.00000000       0.00000000       0.00000000       2.39748454
Ta       0.00000000       0.00000000       3.31818182       0.00000000       0.00000000      -2.39748454
2
Properties=species:S:1:pos:R:3:forces:R:3 energy=-8.608730338636091 pbc="F F F"
Ta       0.00000000       0.00000000       0.00000000       0.00000000       0.00000000       2.25276446
Ta       0.00000000       0.00000000       3.37777778       0.00000000       0.00000000      -2.25276446
2
Properties=species:S:1:pos:R:3:forces:R:3 energy=-8.478666117182591 pbc="F F F"
Ta       0.00000000       0.00000000       0.00000000       0.00000000       0.00000000       2.11272383
Ta       0.00000000       0.00000000       3.43737374       0.00000000       0.00000000      -2.11272383
2
Properties=species:S:1:pos:R:3:forces:R:3 energy=-8.356855491716326 pbc="F F F"
Ta       0.00000000       0.00000000       0.00000000       0.00000000       0.00000000       1.97538185
Ta       0.00000000       0.00000000       3.49696970       0.00000000       0.00000000      -1.97538185
2
Properties=species:S:1:pos:R:3:forces:R:3 energy=-8.243206613718158 pbc="F F F"
Ta       0.00000000       0.00000000       0.00000000       0.00000000       0.00000000       1.83847296
Ta       0.00000000       0.00000000       3.55656566       0.00000000       0.00000000      -1.83847296
2
Properties=species:S:1:pos:R:3:forces:R:3 energy=-8.137746560642034 pbc="F F F"
Ta       0.00000000       0.00000000       0.00000000       0.00000000       0.00000000       1.70049036
Ta       0.00000000       0.00000000       3.61616162       0.00000000       0.00000000      -1.70049036
2
Properties=species:S:1:pos:R:3:forces:R:3 energy=-8.040545605972689 pbc="F F F"
Ta       0.00000000       0.00000000       0.00000000       0.00000000       0.00000000       1.56147432
Ta       0.00000000       0.00000000       3.67575758       0.00000000       0.00000000      -1.56147432
2
Properties=species:S:1:pos:R:3:forces:R:3 energy=-7.951617470281756 pbc="F F F"
Ta       0.00000000       0.00000000       0.00000000       0.00000000       0.00000000       1.42325771
Ta       0.00000000       0.00000000       3.73535354       0.00000000       0.00000000      -1.42325771
2
Properties=species:S:1:pos:R:3:forces:R:3 energy=-7.8708249688433565 pbc="F F F"
Ta       0.00000000       0.00000000       0.00000000       0.00000000       0.00000000       1.28903437
Ta       0.00000000       0.00000000       3.79494949       0.00000000       0.00000000      -1.28903437
2
Properties=species:S:1:pos:R:3:forces:R:3 energy=-7.79782222231126 pbc="F F F"
Ta       0.00000000       0.00000000       0.00000000       0.00000000       0.00000000       1.16245389
Ta       0.00000000       0.00000000       3.85454545       0.00000000       0.00000000      -1.16245389
2
Properties=species:S:1:pos:R:3:forces:R:3 energy=-7.732055463009549 pbc="F F F"
Ta       0.00000000       0.00000000       0.00000000       0.00000000       0.00000000       1.04665601
Ta       0.00000000       0.00000000       3.91414141       0.00000000       0.00000000      -1.04665601
2
Properties=species:S:1:pos:R:3:forces:R:3 energy=-7.6728150228541505 pbc="F F F"
Ta       0.00000000       0.00000000       0.00000000       0.00000000       0.00000000       0.94358641
Ta       0.00000000       0.00000000       3.97373737       0.00000000       0.00000000      -0.94358641
2
Properties=species:S:1:pos:R:3:forces:R:3 energy=-7.61932280362905 pbc="F F F"
Ta       0.00000000       0.00000000       0.00000000       0.00000000       0.00000000       0.85377812
Ta       0.00000000       0.00000000       4.03333333       0.00000000       0.00000000      -0.85377812
2
Properties=species:S:1:pos:R:3:forces:R:3 energy=-7.570802264342593 pbc="F F F"
Ta       0.00000000       0.00000000       0.00000000       0.00000000       0.00000000       0.77650487
Ta       0.00000000       0.00000000       4.09292929       0.00000000       0.00000000      -0.77650487
2
Properties=species:S:1:pos:R:3:forces:R:3 energy=-7.526551084209217 pbc="F F F"
Ta       0.00000000       0.00000000       0.00000000       0.00000000       0.00000000       0.71018630
Ta       0.00000000       0.00000000       4.15252525       0.00000000       0.00000000      -0.71018630
2
Properties=species:S:1:pos:R:3:forces:R:3 energy=-7.485975921076846 pbc="F F F"
Ta       0.00000000       0.00000000       0.00000000       0.00000000       0.00000000       0.65282750
Ta       0.00000000       0.00000000       4.21212121       0.00000000       0.00000000      -0.65282750
2
Properties=species:S:1:pos:R:3:forces:R:3 energy=-7.448602469356722 pbc="F F F"
Ta       0.00000000       0.00000000       0.00000000       0.00000000       0.00000000       0.60238379
Ta       0.00000000       0.00000000       4.27171717       0.00000000       0.00000000      -0.60238379
2
Properties=species:S:1:pos:R:3:forces:R:3 energy=-7.414076000217007 pbc="F F F"
Ta       0.00000000       0.00000000       0.00000000       0.00000000       0.00000000       0.55703020
Ta       0.00000000       0.00000000       4.33131313       0.00000000       0.00000000      -0.55703020
2
Properties=species:S:1:pos:R:3:forces:R:3 energy=-7.382138028240256 pbc="F F F"
Ta       0.00000000       0.00000000       0.00000000       0.00000000       0.00000000       0.51527232
Ta       0.00000000       0.00000000       4.39090909       0.00000000       0.00000000      -0.51527232
2
Properties=species:S:1:pos:R:3:forces:R:3 energy=-7.3526096474654485 pbc="F F F"
Ta       0.00000000       0.00000000       0.00000000       0.00000000       0.00000000       0.47600195
Ta       0.00000000       0.00000000       4.45050505       0.00000000       0.00000000      -0.47600195
2
Properties=species:S:1:pos:R:3:forces:R:3 energy=-7.325368147360312 pbc="F F F"
Ta       0.00000000       0.00000000       0.00000000       0.00000000       0.00000000       0.43846917
Ta       0.00000000       0.00000000       4.51010101       0.00000000       0.00000000      -0.43846917
2
Properties=species:S:1:pos:R:3:forces:R:3 energy=-7.300322267974243 pbc="F F F"
Ta       0.00000000       0.00000000       0.00000000       0.00000000       0.00000000       0.40221110
Ta       0.00000000       0.00000000       4.56969697       0.00000000       0.00000000      -0.40221110
2
Properties=species:S:1:pos:R:3:forces:R:3 energy=-7.277406490563706 pbc="F F F"
Ta       0.00000000       0.00000000       0.00000000       0.00000000       0.00000000       0.36700505
Ta       0.00000000       0.00000000       4.62929293       0.00000000       0.00000000      -0.36700505
2
Properties=species:S:1:pos:R:3:forces:R:3 energy=-7.25655904922997 pbc="F F F"
Ta       0.00000000       0.00000000       0.00000000       0.00000000       0.00000000       0.33280882
Ta       0.00000000       0.00000000       4.68888889       0.00000000       0.00000000      -0.33280882
2
Properties=species:S:1:pos:R:3:forces:R:3 energy=-7.2377172575821955 pbc="F F F"
Ta       0.00000000       0.00000000       0.00000000       0.00000000       0.00000000       0.29968742
Ta       0.00000000       0.00000000       4.74848485       0.00000000       0.00000000      -0.29968742
2
Properties=species:S:1:pos:R:3:forces:R:3 energy=-7.2208144291347605 pbc="F F F"
Ta       0.00000000       0.00000000       0.00000000       0.00000000       0.00000000       0.26778448
Ta       0.00000000       0.00000000       4.80808081       0.00000000       0.00000000      -0.26778448
2
Properties=species:S:1:pos:R:3:forces:R:3 energy=-7.205771910459736 pbc="F F F"
Ta       0.00000000       0.00000000       0.00000000       0.00000000       0.00000000       0.23727880
Ta       0.00000000       0.00000000       4.86767677       0.00000000       0.00000000      -0.23727880
2
Properties=species:S:1:pos:R:3:forces:R:3 energy=-7.192500416663708 pbc="F F F"
Ta       0.00000000       0.00000000       0.00000000       0.00000000       0.00000000       0.20838095
Ta       0.00000000       0.00000000       4.92727273       0.00000000       0.00000000      -0.20838095
2
Properties=species:S:1:pos:R:3:forces:R:3 energy=-7.180897529992556 pbc="F F F"
Ta       0.00000000       0.00000000       0.00000000       0.00000000       0.00000000       0.18133970
Ta       0.00000000       0.00000000       4.98686869       0.00000000       0.00000000      -0.18133970
2
Properties=species:S:1:pos:R:3:forces:R:3 energy=-7.170844403153043 pbc="F F F"
Ta       0.00000000       0.00000000       0.00000000       0.00000000       0.00000000       0.15645976
Ta       0.00000000       0.00000000       5.04646465       0.00000000       0.00000000      -0.15645976
2
Properties=species:S:1:pos:R:3:forces:R:3 energy=-7.162199367192599 pbc="F F F"
Ta       0.00000000       0.00000000       0.00000000       0.00000000       0.00000000       0.13409519
Ta       0.00000000       0.00000000       5.10606061       0.00000000       0.00000000      -0.13409519
2
Properties=species:S:1:pos:R:3:forces:R:3 energy=-7.154801790546105 pbc="F F F"
Ta       0.00000000       0.00000000       0.00000000       0.00000000       0.00000000       0.11467323
Ta       0.00000000       0.00000000       5.16565657       0.00000000       0.00000000      -0.11467323
2
Properties=species:S:1:pos:R:3:forces:R:3 energy=-7.148461954581788 pbc="F F F"
Ta       0.00000000       0.00000000       0.00000000       0.00000000       0.00000000       0.09872483
Ta       0.00000000       0.00000000       5.22525253       0.00000000       0.00000000      -0.09872483
2
Properties=species:S:1:pos:R:3:forces:R:3 energy=-7.142955211178087 pbc="F F F"
Ta       0.00000000       0.00000000       0.00000000       0.00000000       0.00000000       0.08677063
Ta       0.00000000       0.00000000       5.28484848       0.00000000       0.00000000      -0.08677063
2
Properties=species:S:1:pos:R:3:forces:R:3 energy=-7.138040124710416 pbc="F F F"
Ta       0.00000000       0.00000000       0.00000000       0.00000000       0.00000000       0.07874443
Ta       0.00000000       0.00000000       5.34444444       0.00000000       0.00000000      -0.07874443
2
Properties=species:S:1:pos:R:3:forces:R:3 energy=-7.1335298677441905 pbc="F F F"
Ta       0.00000000       0.00000000       0.00000000       0.00000000       0.00000000       0.07260684
Ta       0.00000000       0.00000000       5.40404040       0.00000000       0.00000000      -0.07260684
2
Properties=species:S:1:pos:R:3:forces:R:3 energy=-7.129428567951667 pbc="F F F"
Ta       0.00000000       0.00000000       0.00000000       0.00000000       0.00000000       0.06440291
Ta       0.00000000       0.00000000       5.46363636       0.00000000       0.00000000      -0.06440291
2
Properties=species:S:1:pos:R:3:forces:R:3 energy=-7.125903139873572 pbc="F F F"
Ta       0.00000000       0.00000000       0.00000000       0.00000000       0.00000000       0.05399352
Ta       0.00000000       0.00000000       5.52323232       0.00000000       0.00000000      -0.05399352
2
Properties=species:S:1:pos:R:3:forces:R:3 energy=-7.1229442251892205 pbc="F F F"
Ta       0.00000000       0.00000000       0.00000000       0.00000000       0.00000000       0.04579816
Ta       0.00000000       0.00000000       5.58282828       0.00000000       0.00000000      -0.04579816
2
Properties=species:S:1:pos:R:3:forces:R:3 energy=-7.120410929878182 pbc="F F F"
Ta       0.00000000       0.00000000       0.00000000       0.00000000       0.00000000       0.03924324
Ta       0.00000000       0.00000000       5.64242424       0.00000000       0.00000000      -0.03924324
2
Properties=species:S:1:pos:R:3:forces:R:3 energy=-7.11828361127058 pbc="F F F"
Ta       0.00000000       0.00000000       0.00000000       0.00000000       0.00000000       0.03196672
Ta       0.00000000       0.00000000       5.70202020       0.00000000       0.00000000      -0.03196672
2
Properties=species:S:1:pos:R:3:forces:R:3 energy=-7.116580860864226 pbc="F F F"
Ta       0.00000000       0.00000000       0.00000000       0.00000000       0.00000000       0.02589081
Ta       0.00000000       0.00000000       5.76161616       0.00000000       0.00000000      -0.02589081
2
Properties=species:S:1:pos:R:3:forces:R:3 energy=-7.115077202471766 pbc="F F F"
Ta       0.00000000       0.00000000       0.00000000       0.00000000       0.00000000       0.02536754
Ta       0.00000000       0.00000000       5.82121212       0.00000000       0.00000000      -0.02536754
2
Properties=species:S:1:pos:R:3:forces:R:3 energy=-7.113565400175024 pbc="F F F"
Ta       0.00000000       0.00000000       0.00000000       0.00000000       0.00000000       0.02464319
Ta       0.00000000       0.00000000       5.88080808       0.00000000       0.00000000      -0.02464319
2
Properties=species:S:1:pos:R:3:forces:R:3 energy=-7.1122216918295225 pbc="F F F"
Ta       0.00000000       0.00000000       0.00000000       0.00000000       0.00000000       0.02009374
Ta       0.00000000       0.00000000       5.94040404       0.00000000       0.00000000      -0.02009374
2
Properties=species:S:1:pos:R:3:forces:R:3 energy=-7.111130439438546 pbc="F F F"
Ta       0.00000000       0.00000000       0.00000000       0.00000000       0.00000000       0.01725321
Ta       0.00000000       0.00000000       6.00000000       0.00000000       0.00000000      -0.01725321
