2
Properties=species:S:1:pos:R:3:forces:R:3 energy=131444.91985558692 pbc="F F F"
Tb       0.00000000       0.00000000       0.00000000       0.00000000       0.00000000 -1583326.37500000
Tb       0.00000000       0.00000000       0.10000000       0.00000000       0.00000000 1583326.37500000
2
Properties=species:S:1:pos:R:3:forces:R:3 energy=85557.23235558692 pbc="F F F"
Tb       0.00000000       0.00000000       0.00000000       0.00000000       0.00000000 -335241.59375000
Tb       0.00000000       0.00000000       0.15959596       0.00000000       0.00000000  335241.59375000
2
Properties=species:S:1:pos:R:3:forces:R:3 energy=73855.43548058692 pbc="F F F"
Tb       0.00000000       0.00000000       0.00000000       0.00000000       0.00000000 -111467.55468750
Tb       0.00000000       0.00000000       0.21919192       0.00000000       0.00000000  111467.55468750
2
Properties=species:S:1:pos:R:3:forces:R:3 energy=69077.95891808692 pbc="F F F"
Tb       0.00000000       0.00000000       0.00000000       0.00000000       0.00000000  -62067.71093750
Tb       0.00000000       0.00000000       0.27878788       0.00000000       0.00000000   62067.71093750
2
Properties=species:S:1:pos:R:3:forces:R:3 energy=65495.494074336915 pbc="F F F"
Tb       0.00000000       0.00000000       0.00000000       0.00000000       0.00000000  -63299.61718750
Tb       0.00000000       0.00000000       0.33838384       0.00000000       0.00000000   63299.61718750
2
Properties=species:S:1:pos:R:3:forces:R:3 energy=61086.790949336915 pbc="F F F"
Tb       0.00000000       0.00000000       0.00000000       0.00000000       0.00000000  -87466.59375000
Tb       0.00000000       0.00000000       0.39797980       0.00000000       0.00000000   87466.59375000
2
Properties=species:S:1:pos:R:3:forces:R:3 energy=54833.365168086915 pbc="F F F"
Tb       0.00000000       0.00000000       0.00000000       0.00000000       0.00000000 -123640.03125000
Tb       0.00000000       0.00000000       0.45757576       0.00000000       0.00000000  123640.03125000
2
Properties=species:S:1:pos:R:3:forces:R:3 energy=46334.61907436226 pbc="F F F"
Tb       0.00000000       0.00000000       0.00000000       0.00000000       0.00000000 -151860.95312500
Tb       0.00000000       0.00000000       0.51717172       0.00000000       0.00000000  151860.95312500
2
Properties=species:S:1:pos:R:3:forces:R:3 energy=36386.78313687493 pbc="F F F"
Tb       0.00000000       0.00000000       0.00000000       0.00000000       0.00000000 -179268.93750000
Tb       0.00000000       0.00000000       0.57676768       0.00000000       0.00000000  179268.93750000
2
Properties=species:S:1:pos:R:3:forces:R:3 energy=25425.787043162945 pbc="F F F"
Tb       0.00000000       0.00000000       0.00000000       0.00000000       0.00000000 -183810.32812500
Tb       0.00000000       0.00000000       0.63636364       0.00000000       0.00000000  183810.32812500
2
Properties=species:S:1:pos:R:3:forces:R:3 energy=15443.72356665113 pbc="F F F"
Tb       0.00000000       0.00000000       0.00000000       0.00000000       0.00000000 -152116.29687500
Tb       0.00000000       0.00000000       0.69595960       0.00000000       0.00000000  152116.29687500
2
Properties=species:S:1:pos:R:3:forces:R:3 energy=7236.044855789657 pbc="F F F"
Tb       0.00000000       0.00000000       0.00000000       0.00000000       0.00000000 -127546.86718750
Tb       0.00000000       0.00000000       0.75555556       0.00000000       0.00000000  127546.86718750
2
Properties=species:S:1:pos:R:3:forces:R:3 energy=2063.9113109944947 pbc="F F F"
Tb       0.00000000       0.00000000       0.00000000       0.00000000       0.00000000  -51107.04687500
Tb       0.00000000       0.00000000       0.81515152       0.00000000       0.00000000   51107.04687500
2
Properties=species:S:1:pos:R:3:forces:R:3 energy=364.98299697557945 pbc="F F F"
Tb       0.00000000       0.00000000       0.00000000       0.00000000       0.00000000  -12303.74414062
Tb       0.00000000       0.00000000       0.87474747       0.00000000       0.00000000   12303.74414062
2
Properties=species:S:1:pos:R:3:forces:R:3 energy=92.24317485398122 pbc="F F F"
Tb       0.00000000       0.00000000       0.00000000       0.00000000       0.00000000    -631.17309570
Tb       0.00000000       0.00000000       0.93434343       0.00000000       0.00000000     631.17309570
2
Properties=species:S:1:pos:R:3:forces:R:3 energy=96.10840196705405 pbc="F F F"
Tb       0.00000000       0.00000000       0.00000000       0.00000000       0.00000000     247.71771240
Tb       0.00000000       0.00000000       0.99393939       0.00000000       0.00000000    -247.71771240
2
Properties=species:S:1:pos:R:3:forces:R:3 energy=91.9610101756138 pbc="F F F"
Tb       0.00000000       0.00000000       0.00000000       0.00000000       0.00000000    -139.05828857
Tb       0.00000000       0.00000000       1.05353535       0.00000000       0.00000000     139.05828857
2
Properties=species:S:1:pos:R:3:forces:R:3 energy=84.3625763989499 pbc="F F F"
Tb       0.00000000       0.00000000       0.00000000       0.00000000       0.00000000    -139.93460083
Tb       0.00000000       0.00000000       1.11313131       0.00000000       0.00000000     139.93460083
2
Properties=species:S:1:pos:R:3:forces:R:3 energy=73.1194284568866 pbc="F F F"
Tb       0.00000000       0.00000000       0.00000000       0.00000000       0.00000000    -186.63508606
Tb       0.00000000       0.00000000       1.17272727       0.00000000       0.00000000     186.63508606
2
Properties=species:S:1:pos:R:3:forces:R:3 energy=63.03800867352249 pbc="F F F"
Tb       0.00000000       0.00000000       0.00000000       0.00000000       0.00000000    -153.46955872
Tb       0.00000000       0.00000000       1.23232323       0.00000000       0.00000000     153.46955872
2
Properties=species:S:1:pos:R:3:forces:R:3 energy=54.57231569055915 pbc="F F F"
Tb       0.00000000       0.00000000       0.00000000       0.00000000       0.00000000    -132.36347961
Tb       0.00000000       0.00000000       1.29191919       0.00000000       0.00000000     132.36347961
2
Properties=species:S:1:pos:R:3:forces:R:3 energy=47.09851304134776 pbc="F F F"
Tb       0.00000000       0.00000000       0.00000000       0.00000000       0.00000000    -119.54297638
Tb       0.00000000       0.00000000       1.35151515       0.00000000       0.00000000     119.54297638
2
Properties=species:S:1:pos:R:3:forces:R:3 energy=40.23909457115509 pbc="F F F"
Tb       0.00000000       0.00000000       0.00000000       0.00000000       0.00000000    -111.14454651
Tb       0.00000000       0.00000000       1.41111111       0.00000000       0.00000000     111.14454651
2
Properties=species:S:1:pos:R:3:forces:R:3 energy=33.78594574465674 pbc="F F F"
Tb       0.00000000       0.00000000       0.00000000       0.00000000       0.00000000    -105.80785370
Tb       0.00000000       0.00000000       1.47070707       0.00000000       0.00000000     105.80785370
2
Properties=species:S:1:pos:R:3:forces:R:3 energy=27.657313898794698 pbc="F F F"
Tb       0.00000000       0.00000000       0.00000000       0.00000000       0.00000000     -98.95301056
Tb       0.00000000       0.00000000       1.53030303       0.00000000       0.00000000      98.95301056
2
Properties=species:S:1:pos:R:3:forces:R:3 energy=22.12808429988028 pbc="F F F"
Tb       0.00000000       0.00000000       0.00000000       0.00000000       0.00000000     -85.63697815
Tb       0.00000000       0.00000000       1.58989899       0.00000000       0.00000000      85.63697815
2
Properties=species:S:1:pos:R:3:forces:R:3 energy=17.495145489423248 pbc="F F F"
Tb       0.00000000       0.00000000       0.00000000       0.00000000       0.00000000     -70.06458282
Tb       0.00000000       0.00000000       1.64949495       0.00000000       0.00000000      70.06458282
2
Properties=species:S:1:pos:R:3:forces:R:3 energy=13.71107139572418 pbc="F F F"
Tb       0.00000000       0.00000000       0.00000000       0.00000000       0.00000000     -57.58514404
Tb       0.00000000       0.00000000       1.70909091       0.00000000       0.00000000      57.58514404
2
Properties=species:S:1:pos:R:3:forces:R:3 energy=10.565327146742643 pbc="F F F"
Tb       0.00000000       0.00000000       0.00000000       0.00000000       0.00000000     -48.38847351
Tb       0.00000000       0.00000000       1.76868687       0.00000000       0.00000000      48.38847351
2
Properties=species:S:1:pos:R:3:forces:R:3 energy=7.911066199321597 pbc="F F F"
Tb       0.00000000       0.00000000       0.00000000       0.00000000       0.00000000     -40.86497498
Tb       0.00000000       0.00000000       1.82828283       0.00000000       0.00000000      40.86497498
2
Properties=species:S:1:pos:R:3:forces:R:3 energy=5.678590911969872 pbc="F F F"
Tb       0.00000000       0.00000000       0.00000000       0.00000000       0.00000000     -34.16448212
Tb       0.00000000       0.00000000       1.88787879       0.00000000       0.00000000      34.16448212
2
Properties=species:S:1:pos:R:3:forces:R:3 energy=3.827458858301397 pbc="F F F"
Tb       0.00000000       0.00000000       0.00000000       0.00000000       0.00000000     -28.04459190
Tb       0.00000000       0.00000000       1.94747475       0.00000000       0.00000000      28.04459190
2
Properties=species:S:1:pos:R:3:forces:R:3 energy=2.3262420053299304 pbc="F F F"
Tb       0.00000000       0.00000000       0.00000000       0.00000000       0.00000000     -22.41602135
Tb       0.00000000       0.00000000       2.00707071       0.00000000       0.00000000      22.41602135
2
Properties=species:S:1:pos:R:3:forces:R:3 energy=1.1452878232278 pbc="F F F"
Tb       0.00000000       0.00000000       0.00000000       0.00000000       0.00000000     -17.31280136
Tb       0.00000000       0.00000000       2.06666667       0.00000000       0.00000000      17.31280136
2
Properties=species:S:1:pos:R:3:forces:R:3 energy=0.24968174707829166 pbc="F F F"
Tb       0.00000000       0.00000000       0.00000000       0.00000000       0.00000000     -12.86464691
Tb       0.00000000       0.00000000       2.12626263       0.00000000       0.00000000      12.86464691
2
Properties=species:S:1:pos:R:3:forces:R:3 energy=-0.40388468441173697 pbc="F F F"
Tb       0.00000000       0.00000000       0.00000000       0.00000000       0.00000000      -9.21027660
Tb       0.00000000       0.00000000       2.18585859       0.00000000       0.00000000       9.21027660
2
Properties=species:S:1:pos:R:3:forces:R:3 energy=-0.8654652076189263 pbc="F F F"
Tb       0.00000000       0.00000000       0.00000000       0.00000000       0.00000000      -6.42536974
Tb       0.00000000       0.00000000       2.24545455       0.00000000       0.00000000       6.42536974
2
Properties=species:S:1:pos:R:3:forces:R:3 energy=-1.1863239466895723 pbc="F F F"
Tb       0.00000000       0.00000000       0.00000000       0.00000000       0.00000000      -4.47206879
Tb       0.00000000       0.00000000       2.30505051       0.00000000       0.00000000       4.47206879
2
Properties=species:S:1:pos:R:3:forces:R:3 energy=-1.4124463192193732 pbc="F F F"
Tb       0.00000000       0.00000000       0.00000000       0.00000000       0.00000000      -3.21956873
Tb       0.00000000       0.00000000       2.36464646       0.00000000       0.00000000       3.21956873
2
Properties=species:S:1:pos:R:3:forces:R:3 energy=-1.5805302714321074 pbc="F F F"
Tb       0.00000000       0.00000000       0.00000000       0.00000000       0.00000000      -2.49323940
Tb       0.00000000       0.00000000       2.42424242       0.00000000       0.00000000       2.49323940
2
Properties=species:S:1:pos:R:3:forces:R:3 energy=-1.7163329340325844 pbc="F F F"
Tb       0.00000000       0.00000000       0.00000000       0.00000000       0.00000000      -2.10536933
Tb       0.00000000       0.00000000       2.48383838       0.00000000       0.00000000       2.10536933
2
Properties=species:S:1:pos:R:3:forces:R:3 energy=-1.834836523523834 pbc="F F F"
Tb       0.00000000       0.00000000       0.00000000       0.00000000       0.00000000      -1.88868701
Tb       0.00000000       0.00000000       2.54343434       0.00000000       0.00000000       1.88868701
2
Properties=species:S:1:pos:R:3:forces:R:3 energy=-1.9425298761285297 pbc="F F F"
Tb       0.00000000       0.00000000       0.00000000       0.00000000       0.00000000      -1.72851026
Tb       0.00000000       0.00000000       2.60303030       0.00000000       0.00000000       1.72851026
2
Properties=species:S:1:pos:R:3:forces:R:3 energy=-2.0408180845600095 pbc="F F F"
Tb       0.00000000       0.00000000       0.00000000       0.00000000       0.00000000      -1.56740713
Tb       0.00000000       0.00000000       2.66262626       0.00000000       0.00000000       1.56740713
2
Properties=species:S:1:pos:R:3:forces:R:3 energy=-2.128953471481883 pbc="F F F"
Tb       0.00000000       0.00000000       0.00000000       0.00000000       0.00000000      -1.38673520
Tb       0.00000000       0.00000000       2.72222222       0.00000000       0.00000000       1.38673520
2
Properties=species:S:1:pos:R:3:forces:R:3 energy=-2.2056948204277305 pbc="F F F"
Tb       0.00000000       0.00000000       0.00000000       0.00000000       0.00000000      -1.18556392
Tb       0.00000000       0.00000000       2.78181818       0.00000000       0.00000000       1.18556392
2
Properties=species:S:1:pos:R:3:forces:R:3 energy=-2.2699349165079723 pbc="F F F"
Tb       0.00000000       0.00000000       0.00000000       0.00000000       0.00000000      -0.96789372
Tb       0.00000000       0.00000000       2.84141414       0.00000000       0.00000000       0.96789372
2
Properties=species:S:1:pos:R:3:forces:R:3 energy=-2.320824138268767 pbc="F F F"
Tb       0.00000000       0.00000000       0.00000000       0.00000000       0.00000000      -0.73837179
Tb       0.00000000       0.00000000       2.90101010       0.00000000       0.00000000       0.73837179
2
Properties=species:S:1:pos:R:3:forces:R:3 energy=-2.3578130435827473 pbc="F F F"
Tb       0.00000000       0.00000000       0.00000000       0.00000000       0.00000000      -0.50230992
Tb       0.00000000       0.00000000       2.96060606       0.00000000       0.00000000       0.50230992
2
Properties=species:S:1:pos:R:3:forces:R:3 energy=-2.380701197108483 pbc="F F F"
Tb       0.00000000       0.00000000       0.00000000       0.00000000       0.00000000      -0.26651284
Tb       0.00000000       0.00000000       3.02020202       0.00000000       0.00000000       0.26651284
2
Properties=species:S:1:pos:R:3:forces:R:3 energy=-2.3897503937729807 pbc="F F F"
Tb       0.00000000       0.00000000       0.00000000       0.00000000       0.00000000      -0.03929729
Tb       0.00000000       0.00000000       3.07979798       0.00000000       0.00000000       0.03929729
2
Properties=species:S:1:pos:R:3:forces:R:3 energy=-2.3857259915489815 pbc="F F F"
Tb       0.00000000       0.00000000       0.00000000       0.00000000       0.00000000       0.17080918
Tb       0.00000000       0.00000000       3.13939394       0.00000000       0.00000000      -0.17080918
2
Properties=species:S:1:pos:R:3:forces:R:3 energy=-2.36986594471816 pbc="F F F"
Tb       0.00000000       0.00000000       0.00000000       0.00000000       0.00000000       0.35706359
Tb       0.00000000       0.00000000       3.19898990       0.00000000       0.00000000      -0.35706359
2
Properties=species:S:1:pos:R:3:forces:R:3 energy=-2.3437131679315364 pbc="F F F"
Tb       0.00000000       0.00000000       0.00000000       0.00000000       0.00000000       0.51594460
Tb       0.00000000       0.00000000       3.25858586       0.00000000       0.00000000      -0.51594460
2
Properties=species:S:1:pos:R:3:forces:R:3 energy=-2.3089203854347855 pbc="F F F"
Tb       0.00000000       0.00000000       0.00000000       0.00000000       0.00000000       0.64719164
Tb       0.00000000       0.00000000       3.31818182       0.00000000       0.00000000      -0.64719164
2
Properties=species:S:1:pos:R:3:forces:R:3 energy=-2.2670842170797636 pbc="F F F"
Tb       0.00000000       0.00000000       0.00000000       0.00000000       0.00000000       0.75271410
Tb       0.00000000       0.00000000       3.37777778       0.00000000       0.00000000      -0.75271410
2
Properties=species:S:1:pos:R:3:forces:R:3 energy=-2.21965662366135 pbc="F F F"
Tb       0.00000000       0.00000000       0.00000000       0.00000000       0.00000000       0.83536798
Tb       0.00000000       0.00000000       3.43737374       0.00000000       0.00000000      -0.83536798
2
Properties=species:S:1:pos:R:3:forces:R:3 energy=-2.167909070438757 pbc="F F F"
Tb       0.00000000       0.00000000       0.00000000       0.00000000       0.00000000       0.89816737
Tb       0.00000000       0.00000000       3.49696970       0.00000000       0.00000000      -0.89816737
2
Properties=species:S:1:pos:R:3:forces:R:3 energy=-2.1129397787273043 pbc="F F F"
Tb       0.00000000       0.00000000       0.00000000       0.00000000       0.00000000       0.94395530
Tb       0.00000000       0.00000000       3.55656566       0.00000000       0.00000000      -0.94395530
2
Properties=species:S:1:pos:R:3:forces:R:3 energy=-2.0556843430287883 pbc="F F F"
Tb       0.00000000       0.00000000       0.00000000       0.00000000       0.00000000       0.97530198
Tb       0.00000000       0.00000000       3.61616162       0.00000000       0.00000000      -0.97530198
2
Properties=species:S:1:pos:R:3:forces:R:3 energy=-1.9969348171890973 pbc="F F F"
Tb       0.00000000       0.00000000       0.00000000       0.00000000       0.00000000       0.99442863
Tb       0.00000000       0.00000000       3.67575758       0.00000000       0.00000000      -0.99442863
2
Properties=species:S:1:pos:R:3:forces:R:3 energy=-1.9373633915293702 pbc="F F F"
Tb       0.00000000       0.00000000       0.00000000       0.00000000       0.00000000       1.00314748
Tb       0.00000000       0.00000000       3.73535354       0.00000000       0.00000000      -1.00314748
2
Properties=species:S:1:pos:R:3:forces:R:3 energy=-1.8775442980129569 pbc="F F F"
Tb       0.00000000       0.00000000       0.00000000       0.00000000       0.00000000       1.00294471
Tb       0.00000000       0.00000000       3.79494949       0.00000000       0.00000000      -1.00294471
2
Properties=species:S:1:pos:R:3:forces:R:3 energy=-1.8179718350227652 pbc="F F F"
Tb       0.00000000       0.00000000       0.00000000       0.00000000       0.00000000       0.99510431
Tb       0.00000000       0.00000000       3.85454545       0.00000000       0.00000000      -0.99510431
2
Properties=species:S:1:pos:R:3:forces:R:3 energy=-1.7590627895609177 pbc="F F F"
Tb       0.00000000       0.00000000       0.00000000       0.00000000       0.00000000       0.98090738
Tb       0.00000000       0.00000000       3.91414141       0.00000000       0.00000000      -0.98090738
2
Properties=species:S:1:pos:R:3:forces:R:3 energy=-1.7011552324845678 pbc="F F F"
Tb       0.00000000       0.00000000       0.00000000       0.00000000       0.00000000       0.96168667
Tb       0.00000000       0.00000000       3.97373737       0.00000000       0.00000000      -0.96168667
2
Properties=species:S:1:pos:R:3:forces:R:3 energy=-1.6445105589030626 pbc="F F F"
Tb       0.00000000       0.00000000       0.00000000       0.00000000       0.00000000       0.93877751
Tb       0.00000000       0.00000000       4.03333333       0.00000000       0.00000000      -0.93877751
2
Properties=species:S:1:pos:R:3:forces:R:3 energy=-1.5893100236049496 pbc="F F F"
Tb       0.00000000       0.00000000       0.00000000       0.00000000       0.00000000       0.91337621
Tb       0.00000000       0.00000000       4.09292929       0.00000000       0.00000000      -0.91337621
2
Properties=species:S:1:pos:R:3:forces:R:3 energy=-1.5356730446036726 pbc="F F F"
Tb       0.00000000       0.00000000       0.00000000       0.00000000       0.00000000       0.88644600
Tb       0.00000000       0.00000000       4.15252525       0.00000000       0.00000000      -0.88644600
2
Properties=species:S:1:pos:R:3:forces:R:3 energy=-1.4836705102284924 pbc="F F F"
Tb       0.00000000       0.00000000       0.00000000       0.00000000       0.00000000       0.85866374
Tb       0.00000000       0.00000000       4.21212121       0.00000000       0.00000000      -0.85866374
2
Properties=species:S:1:pos:R:3:forces:R:3 energy=-1.4333352758776106 pbc="F F F"
Tb       0.00000000       0.00000000       0.00000000       0.00000000       0.00000000       0.83046371
Tb       0.00000000       0.00000000       4.27171717       0.00000000       0.00000000      -0.83046371
2
Properties=species:S:1:pos:R:3:forces:R:3 energy=-1.384689489456006 pbc="F F F"
Tb       0.00000000       0.00000000       0.00000000       0.00000000       0.00000000       0.80207205
Tb       0.00000000       0.00000000       4.33131313       0.00000000       0.00000000      -0.80207205
2
Properties=species:S:1:pos:R:3:forces:R:3 energy=-1.3377377140825548 pbc="F F F"
Tb       0.00000000       0.00000000       0.00000000       0.00000000       0.00000000       0.77356881
Tb       0.00000000       0.00000000       4.39090909       0.00000000       0.00000000      -0.77356881
2
Properties=species:S:1:pos:R:3:forces:R:3 energy=-1.2924875904789408 pbc="F F F"
Tb       0.00000000       0.00000000       0.00000000       0.00000000       0.00000000       0.74495465
Tb       0.00000000       0.00000000       4.45050505       0.00000000       0.00000000      -0.74495465
2
Properties=species:S:1:pos:R:3:forces:R:3 energy=-1.2489476595242215 pbc="F F F"
Tb       0.00000000       0.00000000       0.00000000       0.00000000       0.00000000       0.71621418
Tb       0.00000000       0.00000000       4.51010101       0.00000000       0.00000000      -0.71621418
2
Properties=species:S:1:pos:R:3:forces:R:3 energy=-1.2071232216079155 pbc="F F F"
Tb       0.00000000       0.00000000       0.00000000       0.00000000       0.00000000       0.68733901
Tb       0.00000000       0.00000000       4.56969697       0.00000000       0.00000000      -0.68733901
2
Properties=species:S:1:pos:R:3:forces:R:3 energy=-1.1670235968933287 pbc="F F F"
Tb       0.00000000       0.00000000       0.00000000       0.00000000       0.00000000       0.65835804
Tb       0.00000000       0.00000000       4.62929293       0.00000000       0.00000000      -0.65835804
2
Properties=species:S:1:pos:R:3:forces:R:3 energy=-1.1286539252191523 pbc="F F F"
Tb       0.00000000       0.00000000       0.00000000       0.00000000       0.00000000       0.62933600
Tb       0.00000000       0.00000000       4.68888889       0.00000000       0.00000000      -0.62933600
2
Properties=species:S:1:pos:R:3:forces:R:3 energy=-1.0920116024920656 pbc="F F F"
Tb       0.00000000       0.00000000       0.00000000       0.00000000       0.00000000       0.60033584
Tb       0.00000000       0.00000000       4.74848485       0.00000000       0.00000000      -0.60033584
2
Properties=species:S:1:pos:R:3:forces:R:3 energy=-1.0570974420104422 pbc="F F F"
Tb       0.00000000       0.00000000       0.00000000       0.00000000       0.00000000       0.57140791
Tb       0.00000000       0.00000000       4.80808081       0.00000000       0.00000000      -0.57140791
2
Properties=species:S:1:pos:R:3:forces:R:3 energy=-1.0239010293127755 pbc="F F F"
Tb       0.00000000       0.00000000       0.00000000       0.00000000       0.00000000       0.54264116
Tb       0.00000000       0.00000000       4.86767677       0.00000000       0.00000000      -0.54264116
2
Properties=species:S:1:pos:R:3:forces:R:3 energy=-0.9924106533946246 pbc="F F F"
Tb       0.00000000       0.00000000       0.00000000       0.00000000       0.00000000       0.51423311
Tb       0.00000000       0.00000000       4.92727273       0.00000000       0.00000000      -0.51423311
2
Properties=species:S:1:pos:R:3:forces:R:3 energy=-0.9625924603380775 pbc="F F F"
Tb       0.00000000       0.00000000       0.00000000       0.00000000       0.00000000       0.48660737
Tb       0.00000000       0.00000000       4.98686869       0.00000000       0.00000000      -0.48660737
2
Properties=species:S:1:pos:R:3:forces:R:3 energy=-0.9343845472842264 pbc="F F F"
Tb       0.00000000       0.00000000       0.00000000       0.00000000       0.00000000       0.46044791
Tb       0.00000000       0.00000000       5.04646465       0.00000000       0.00000000      -0.46044791
2
Properties=species:S:1:pos:R:3:forces:R:3 energy=-0.9076672338026068 pbc="F F F"
Tb       0.00000000       0.00000000       0.00000000       0.00000000       0.00000000       0.43658316
Tb       0.00000000       0.00000000       5.10606061       0.00000000       0.00000000      -0.43658316
2
Properties=species:S:1:pos:R:3:forces:R:3 energy=-0.8822861084658998 pbc="F F F"
Tb       0.00000000       0.00000000       0.00000000       0.00000000       0.00000000       0.41554362
Tb       0.00000000       0.00000000       5.16565657       0.00000000       0.00000000      -0.41554362
2
Properties=species:S:1:pos:R:3:forces:R:3 energy=-0.8580879059263352 pbc="F F F"
Tb       0.00000000       0.00000000       0.00000000       0.00000000       0.00000000       0.39681041
Tb       0.00000000       0.00000000       5.22525253       0.00000000       0.00000000      -0.39681041
2
Properties=species:S:1:pos:R:3:forces:R:3 energy=-0.8349950000503734 pbc="F F F"
Tb       0.00000000       0.00000000       0.00000000       0.00000000       0.00000000       0.37781903
Tb       0.00000000       0.00000000       5.28484848       0.00000000       0.00000000      -0.37781903
2
Properties=species:S:1:pos:R:3:forces:R:3 energy=-0.8131400850733199 pbc="F F F"
Tb       0.00000000       0.00000000       0.00000000       0.00000000       0.00000000       0.35464042
Tb       0.00000000       0.00000000       5.34444444       0.00000000       0.00000000      -0.35464042
2
Properties=species:S:1:pos:R:3:forces:R:3 energy=-0.7928018926978821 pbc="F F F"
Tb       0.00000000       0.00000000       0.00000000       0.00000000       0.00000000       0.32795861
Tb       0.00000000       0.00000000       5.40404040       0.00000000       0.00000000      -0.32795861
2
Properties=species:S:1:pos:R:3:forces:R:3 energy=-0.7738937488119773 pbc="F F F"
Tb       0.00000000       0.00000000       0.00000000       0.00000000       0.00000000       0.30864421
Tb       0.00000000       0.00000000       5.46363636       0.00000000       0.00000000      -0.30864421
2
Properties=species:S:1:pos:R:3:forces:R:3 energy=-0.755823577433289 pbc="F F F"
Tb       0.00000000       0.00000000       0.00000000       0.00000000       0.00000000       0.29805151
Tb       0.00000000       0.00000000       5.52323232       0.00000000       0.00000000      -0.29805151
2
Properties=species:S:1:pos:R:3:forces:R:3 energy=-0.7386133317909965 pbc="F F F"
Tb       0.00000000       0.00000000       0.00000000       0.00000000       0.00000000       0.27635312
Tb       0.00000000       0.00000000       5.58282828       0.00000000       0.00000000      -0.27635312
2
Properties=species:S:1:pos:R:3:forces:R:3 energy=-0.7231627868925113 pbc="F F F"
Tb       0.00000000       0.00000000       0.00000000       0.00000000       0.00000000       0.24165793
Tb       0.00000000       0.00000000       5.64242424       0.00000000       0.00000000      -0.24165793
2
Properties=species:S:1:pos:R:3:forces:R:3 energy=-0.7095545723274418 pbc="F F F"
Tb       0.00000000       0.00000000       0.00000000       0.00000000       0.00000000       0.21960670
Tb       0.00000000       0.00000000       5.70202020       0.00000000       0.00000000      -0.21960670
2
Properties=species:S:1:pos:R:3:forces:R:3 energy=-0.6963002129409444 pbc="F F F"
Tb       0.00000000       0.00000000       0.00000000       0.00000000       0.00000000       0.22961974
Tb       0.00000000       0.00000000       5.76161616       0.00000000       0.00000000      -0.22961974
2
Properties=species:S:1:pos:R:3:forces:R:3 energy=-0.6824401527725659 pbc="F F F"
Tb       0.00000000       0.00000000       0.00000000       0.00000000       0.00000000       0.22627622
Tb       0.00000000       0.00000000       5.82121212       0.00000000       0.00000000      -0.22627622
2
Properties=species:S:1:pos:R:3:forces:R:3 energy=-0.6707256462313745 pbc="F F F"
Tb       0.00000000       0.00000000       0.00000000       0.00000000       0.00000000       0.15832742
Tb       0.00000000       0.00000000       5.88080808       0.00000000       0.00000000      -0.15832742
2
Properties=species:S:1:pos:R:3:forces:R:3 energy=-0.6639450399024119 pbc="F F F"
Tb       0.00000000       0.00000000       0.00000000       0.00000000       0.00000000       0.07067111
Tb       0.00000000       0.00000000       5.94040404       0.00000000       0.00000000      -0.07067111
2
Properties=species:S:1:pos:R:3:forces:R:3 energy=-0.6612280055543273 pbc="F F F"
Tb       0.00000000       0.00000000       0.00000000       0.00000000       0.00000000       0.03298599
Tb       0.00000000       0.00000000       6.00000000       0.00000000       0.00000000      -0.03298599
