2
Properties=species:S:1:pos:R:3:forces:R:3 energy=33787.69204392539 pbc="F F F"
Tc       0.00000000       0.00000000       0.00000000       0.00000000       0.00000000 -788921.12500000
Tc       0.00000000       0.00000000       0.10000000       0.00000000       0.00000000  788921.12500000
2
Properties=species:S:1:pos:R:3:forces:R:3 energy=10423.595364237888 pbc="F F F"
Tc       0.00000000       0.00000000       0.00000000       0.00000000       0.00000000 -175220.35937500
Tc       0.00000000       0.00000000       0.15959596       0.00000000       0.00000000  175220.35937500
2
Properties=species:S:1:pos:R:3:forces:R:3 energy=4341.670071269137 pbc="F F F"
Tc       0.00000000       0.00000000       0.00000000       0.00000000       0.00000000  -55635.64062500
Tc       0.00000000       0.00000000       0.21919192       0.00000000       0.00000000   55635.64062500
2
Properties=species:S:1:pos:R:3:forces:R:3 energy=2225.7977568160127 pbc="F F F"
Tc       0.00000000       0.00000000       0.00000000       0.00000000       0.00000000  -21552.17968750
Tc       0.00000000       0.00000000       0.27878788       0.00000000       0.00000000   21552.17968750
2
Properties=species:S:1:pos:R:3:forces:R:3 energy=1362.0244413926607 pbc="F F F"
Tc       0.00000000       0.00000000       0.00000000       0.00000000       0.00000000   -9310.16406250
Tc       0.00000000       0.00000000       0.33838384       0.00000000       0.00000000    9310.16406250
2
Properties=species:S:1:pos:R:3:forces:R:3 energy=978.3916288989964 pbc="F F F"
Tc       0.00000000       0.00000000       0.00000000       0.00000000       0.00000000   -4256.22998047
Tc       0.00000000       0.00000000       0.39797980       0.00000000       0.00000000    4256.22998047
2
Properties=species:S:1:pos:R:3:forces:R:3 energy=801.788296398472 pbc="F F F"
Tc       0.00000000       0.00000000       0.00000000       0.00000000       0.00000000   -1953.94909668
Tc       0.00000000       0.00000000       0.45757576       0.00000000       0.00000000    1953.94909668
2
Properties=species:S:1:pos:R:3:forces:R:3 energy=721.7720000434315 pbc="F F F"
Tc       0.00000000       0.00000000       0.00000000       0.00000000       0.00000000    -873.95599365
Tc       0.00000000       0.00000000       0.51717172       0.00000000       0.00000000     873.95599365
2
Properties=species:S:1:pos:R:3:forces:R:3 energy=684.1899688567879 pbc="F F F"
Tc       0.00000000       0.00000000       0.00000000       0.00000000       0.00000000    -480.55285645
Tc       0.00000000       0.00000000       0.57676768       0.00000000       0.00000000     480.55285645
2
Properties=species:S:1:pos:R:3:forces:R:3 energy=654.7101105597208 pbc="F F F"
Tc       0.00000000       0.00000000       0.00000000       0.00000000       0.00000000    -581.20684814
Tc       0.00000000       0.00000000       0.63636364       0.00000000       0.00000000     581.20684814
2
Properties=species:S:1:pos:R:3:forces:R:3 energy=607.7435579900725 pbc="F F F"
Tc       0.00000000       0.00000000       0.00000000       0.00000000       0.00000000   -1038.24792480
Tc       0.00000000       0.00000000       0.69595960       0.00000000       0.00000000    1038.24792480
2
Properties=species:S:1:pos:R:3:forces:R:3 energy=528.6686681067795 pbc="F F F"
Tc       0.00000000       0.00000000       0.00000000       0.00000000       0.00000000   -1606.36560059
Tc       0.00000000       0.00000000       0.75555556       0.00000000       0.00000000    1606.36560059
2
Properties=species:S:1:pos:R:3:forces:R:3 energy=422.08913967832444 pbc="F F F"
Tc       0.00000000       0.00000000       0.00000000       0.00000000       0.00000000   -1876.43395996
Tc       0.00000000       0.00000000       0.81515152       0.00000000       0.00000000    1876.43395996
2
Properties=species:S:1:pos:R:3:forces:R:3 energy=317.19961386233797 pbc="F F F"
Tc       0.00000000       0.00000000       0.00000000       0.00000000       0.00000000   -1571.73413086
Tc       0.00000000       0.00000000       0.87474747       0.00000000       0.00000000    1571.73413086
2
Properties=species:S:1:pos:R:3:forces:R:3 energy=233.27175819630972 pbc="F F F"
Tc       0.00000000       0.00000000       0.00000000       0.00000000       0.00000000   -1266.08251953
Tc       0.00000000       0.00000000       0.93434343       0.00000000       0.00000000    1266.08251953
2
Properties=species:S:1:pos:R:3:forces:R:3 energy=165.14160180266612 pbc="F F F"
Tc       0.00000000       0.00000000       0.00000000       0.00000000       0.00000000   -1006.02819824
Tc       0.00000000       0.00000000       0.99393939       0.00000000       0.00000000    1006.02819824
2
Properties=species:S:1:pos:R:3:forces:R:3 energy=115.42978075643433 pbc="F F F"
Tc       0.00000000       0.00000000       0.00000000       0.00000000       0.00000000    -666.86694336
Tc       0.00000000       0.00000000       1.05353535       0.00000000       0.00000000     666.86694336
2
Properties=species:S:1:pos:R:3:forces:R:3 energy=82.7714041130742 pbc="F F F"
Tc       0.00000000       0.00000000       0.00000000       0.00000000       0.00000000    -455.96231079
Tc       0.00000000       0.00000000       1.11313131       0.00000000       0.00000000     455.96231079
2
Properties=species:S:1:pos:R:3:forces:R:3 energy=59.017996333319026 pbc="F F F"
Tc       0.00000000       0.00000000       0.00000000       0.00000000       0.00000000    -348.43624878
Tc       0.00000000       0.00000000       1.17272727       0.00000000       0.00000000     348.43624878
2
Properties=species:S:1:pos:R:3:forces:R:3 energy=40.85761837407183 pbc="F F F"
Tc       0.00000000       0.00000000       0.00000000       0.00000000       0.00000000    -263.61282349
Tc       0.00000000       0.00000000       1.23232323       0.00000000       0.00000000     263.61282349
2
Properties=species:S:1:pos:R:3:forces:R:3 energy=27.206972645224603 pbc="F F F"
Tc       0.00000000       0.00000000       0.00000000       0.00000000       0.00000000    -198.11869812
Tc       0.00000000       0.00000000       1.29191919       0.00000000       0.00000000     198.11869812
2
Properties=species:S:1:pos:R:3:forces:R:3 energy=16.873014712384947 pbc="F F F"
Tc       0.00000000       0.00000000       0.00000000       0.00000000       0.00000000    -150.96205139
Tc       0.00000000       0.00000000       1.35151515       0.00000000       0.00000000     150.96205139
2
Properties=species:S:1:pos:R:3:forces:R:3 energy=9.009932966099633 pbc="F F F"
Tc       0.00000000       0.00000000       0.00000000       0.00000000       0.00000000    -114.39694977
Tc       0.00000000       0.00000000       1.41111111       0.00000000       0.00000000     114.39694977
2
Properties=species:S:1:pos:R:3:forces:R:3 energy=3.066654629803123 pbc="F F F"
Tc       0.00000000       0.00000000       0.00000000       0.00000000       0.00000000     -86.37485504
Tc       0.00000000       0.00000000       1.47070707       0.00000000       0.00000000      86.37485504
2
Properties=species:S:1:pos:R:3:forces:R:3 energy=-1.4172992328776899 pbc="F F F"
Tc       0.00000000       0.00000000       0.00000000       0.00000000       0.00000000     -65.00818634
Tc       0.00000000       0.00000000       1.53030303       0.00000000       0.00000000      65.00818634
2
Properties=species:S:1:pos:R:3:forces:R:3 energy=-4.771917204591209 pbc="F F F"
Tc       0.00000000       0.00000000       0.00000000       0.00000000       0.00000000     -48.21477127
Tc       0.00000000       0.00000000       1.58989899       0.00000000       0.00000000      48.21477127
2
Properties=species:S:1:pos:R:3:forces:R:3 energy=-7.231892883915037 pbc="F F F"
Tc       0.00000000       0.00000000       0.00000000       0.00000000       0.00000000     -34.85145187
Tc       0.00000000       0.00000000       1.64949495       0.00000000       0.00000000      34.85145187
2
Properties=species:S:1:pos:R:3:forces:R:3 energy=-8.9826835211342 pbc="F F F"
Tc       0.00000000       0.00000000       0.00000000       0.00000000       0.00000000     -24.34847260
Tc       0.00000000       0.00000000       1.70909091       0.00000000       0.00000000      24.34847260
2
Properties=species:S:1:pos:R:3:forces:R:3 energy=-10.182344887559363 pbc="F F F"
Tc       0.00000000       0.00000000       0.00000000       0.00000000       0.00000000     -16.27059364
Tc       0.00000000       0.00000000       1.76868687       0.00000000       0.00000000      16.27059364
2
Properties=species:S:1:pos:R:3:forces:R:3 energy=-10.958823431346985 pbc="F F F"
Tc       0.00000000       0.00000000       0.00000000       0.00000000       0.00000000     -10.04921627
Tc       0.00000000       0.00000000       1.82828283       0.00000000       0.00000000      10.04921627
2
Properties=species:S:1:pos:R:3:forces:R:3 energy=-11.407011293196394 pbc="F F F"
Tc       0.00000000       0.00000000       0.00000000       0.00000000       0.00000000      -5.18939829
Tc       0.00000000       0.00000000       1.88787879       0.00000000       0.00000000       5.18939829
2
Properties=species:S:1:pos:R:3:forces:R:3 energy=-11.5989032355948 pbc="F F F"
Tc       0.00000000       0.00000000       0.00000000       0.00000000       0.00000000      -1.41946352
Tc       0.00000000       0.00000000       1.94747475       0.00000000       0.00000000       1.41946352
2
Properties=species:S:1:pos:R:3:forces:R:3 energy=-11.595452854967382 pbc="F F F"
Tc       0.00000000       0.00000000       0.00000000       0.00000000       0.00000000       1.38057745
Tc       0.00000000       0.00000000       2.00707071       0.00000000       0.00000000      -1.38057745
2
Properties=species:S:1:pos:R:3:forces:R:3 energy=-11.451849863556172 pbc="F F F"
Tc       0.00000000       0.00000000       0.00000000       0.00000000       0.00000000       3.30108094
Tc       0.00000000       0.00000000       2.06666667       0.00000000       0.00000000      -3.30108094
2
Properties=species:S:1:pos:R:3:forces:R:3 energy=-11.217104724577558 pbc="F F F"
Tc       0.00000000       0.00000000       0.00000000       0.00000000       0.00000000       4.46150637
Tc       0.00000000       0.00000000       2.12626263       0.00000000       0.00000000      -4.46150637
2
Properties=species:S:1:pos:R:3:forces:R:3 energy=-10.932382953666872 pbc="F F F"
Tc       0.00000000       0.00000000       0.00000000       0.00000000       0.00000000       5.00211906
Tc       0.00000000       0.00000000       2.18585859       0.00000000       0.00000000      -5.00211906
2
Properties=species:S:1:pos:R:3:forces:R:3 energy=-10.630396116808113 pbc="F F F"
Tc       0.00000000       0.00000000       0.00000000       0.00000000       0.00000000       5.06426668
Tc       0.00000000       0.00000000       2.24545455       0.00000000       0.00000000      -5.06426668
2
Properties=species:S:1:pos:R:3:forces:R:3 energy=-10.335503749461198 pbc="F F F"
Tc       0.00000000       0.00000000       0.00000000       0.00000000       0.00000000       4.78729391
Tc       0.00000000       0.00000000       2.30505051       0.00000000       0.00000000      -4.78729391
2
Properties=species:S:1:pos:R:3:forces:R:3 energy=-10.063707111026153 pbc="F F F"
Tc       0.00000000       0.00000000       0.00000000       0.00000000       0.00000000       4.31297207
Tc       0.00000000       0.00000000       2.36464646       0.00000000       0.00000000      -4.31297207
2
Properties=species:S:1:pos:R:3:forces:R:3 energy=-9.8226433157986 pbc="F F F"
Tc       0.00000000       0.00000000       0.00000000       0.00000000       0.00000000       3.77667546
Tc       0.00000000       0.00000000       2.42424242       0.00000000       0.00000000      -3.77667546
2
Properties=species:S:1:pos:R:3:forces:R:3 energy=-9.612677921388583 pbc="F F F"
Tc       0.00000000       0.00000000       0.00000000       0.00000000       0.00000000       3.28283739
Tc       0.00000000       0.00000000       2.48383838       0.00000000       0.00000000      -3.28283739
2
Properties=species:S:1:pos:R:3:forces:R:3 energy=-9.429409342691718 pbc="F F F"
Tc       0.00000000       0.00000000       0.00000000       0.00000000       0.00000000       2.88523746
Tc       0.00000000       0.00000000       2.54343434       0.00000000       0.00000000      -2.88523746
2
Properties=species:S:1:pos:R:3:forces:R:3 energy=-9.266739643197631 pbc="F F F"
Tc       0.00000000       0.00000000       0.00000000       0.00000000       0.00000000       2.58950949
Tc       0.00000000       0.00000000       2.60303030       0.00000000       0.00000000      -2.58950949
2
Properties=species:S:1:pos:R:3:forces:R:3 energy=-9.11917223676502 pbc="F F F"
Tc       0.00000000       0.00000000       0.00000000       0.00000000       0.00000000       2.37366939
Tc       0.00000000       0.00000000       2.66262626       0.00000000       0.00000000      -2.37366939
2
Properties=species:S:1:pos:R:3:forces:R:3 energy=-8.982770960938431 pbc="F F F"
Tc       0.00000000       0.00000000       0.00000000       0.00000000       0.00000000       2.21096063
Tc       0.00000000       0.00000000       2.72222222       0.00000000       0.00000000      -2.21096063
2
Properties=species:S:1:pos:R:3:forces:R:3 energy=-8.85484790638475 pbc="F F F"
Tc       0.00000000       0.00000000       0.00000000       0.00000000       0.00000000       2.08940792
Tc       0.00000000       0.00000000       2.78181818       0.00000000       0.00000000      -2.08940792
2
Properties=species:S:1:pos:R:3:forces:R:3 energy=-8.732584953455593 pbc="F F F"
Tc       0.00000000       0.00000000       0.00000000       0.00000000       0.00000000       2.02550173
Tc       0.00000000       0.00000000       2.84141414       0.00000000       0.00000000      -2.02550173
2
Properties=species:S:1:pos:R:3:forces:R:3 energy=-8.612055076425959 pbc="F F F"
Tc       0.00000000       0.00000000       0.00000000       0.00000000       0.00000000       2.02769232
Tc       0.00000000       0.00000000       2.90101010       0.00000000       0.00000000      -2.02769232
2
Properties=species:S:1:pos:R:3:forces:R:3 energy=-8.490624319353692 pbc="F F F"
Tc       0.00000000       0.00000000       0.00000000       0.00000000       0.00000000       2.04416108
Tc       0.00000000       0.00000000       2.96060606       0.00000000       0.00000000      -2.04416108
2
Properties=species:S:1:pos:R:3:forces:R:3 energy=-8.36916591312449 pbc="F F F"
Tc       0.00000000       0.00000000       0.00000000       0.00000000       0.00000000       2.02419162
Tc       0.00000000       0.00000000       3.02020202       0.00000000       0.00000000      -2.02419162
2
Properties=species:S:1:pos:R:3:forces:R:3 energy=-8.25023350080646 pbc="F F F"
Tc       0.00000000       0.00000000       0.00000000       0.00000000       0.00000000       1.96057498
Tc       0.00000000       0.00000000       3.07979798       0.00000000       0.00000000      -1.96057498
2
Properties=species:S:1:pos:R:3:forces:R:3 energy=-8.136141431991097 pbc="F F F"
Tc       0.00000000       0.00000000       0.00000000       0.00000000       0.00000000       1.86379540
Tc       0.00000000       0.00000000       3.13939394       0.00000000       0.00000000      -1.86379540
2
Properties=species:S:1:pos:R:3:forces:R:3 energy=-8.02848789331049 pbc="F F F"
Tc       0.00000000       0.00000000       0.00000000       0.00000000       0.00000000       1.74663603
Tc       0.00000000       0.00000000       3.19898990       0.00000000       0.00000000      -1.74663603
2
Properties=species:S:1:pos:R:3:forces:R:3 energy=-7.928112661894333 pbc="F F F"
Tc       0.00000000       0.00000000       0.00000000       0.00000000       0.00000000       1.62152994
Tc       0.00000000       0.00000000       3.25858586       0.00000000       0.00000000      -1.62152994
2
Properties=species:S:1:pos:R:3:forces:R:3 energy=-7.835163693579518 pbc="F F F"
Tc       0.00000000       0.00000000       0.00000000       0.00000000       0.00000000       1.49888062
Tc       0.00000000       0.00000000       3.31818182       0.00000000       0.00000000      -1.49888062
2
Properties=species:S:1:pos:R:3:forces:R:3 energy=-7.749276854241078 pbc="F F F"
Tc       0.00000000       0.00000000       0.00000000       0.00000000       0.00000000       1.38525689
Tc       0.00000000       0.00000000       3.37777778       0.00000000       0.00000000      -1.38525689
2
Properties=species:S:1:pos:R:3:forces:R:3 energy=-7.669829403894015 pbc="F F F"
Tc       0.00000000       0.00000000       0.00000000       0.00000000       0.00000000       1.28275764
Tc       0.00000000       0.00000000       3.43737374       0.00000000       0.00000000      -1.28275764
2
Properties=species:S:1:pos:R:3:forces:R:3 energy=-7.596190595003679 pbc="F F F"
Tc       0.00000000       0.00000000       0.00000000       0.00000000       0.00000000       1.18979692
Tc       0.00000000       0.00000000       3.49696970       0.00000000       0.00000000      -1.18979692
2
Properties=species:S:1:pos:R:3:forces:R:3 energy=-7.527895074501066 pbc="F F F"
Tc       0.00000000       0.00000000       0.00000000       0.00000000       0.00000000       1.10283077
Tc       0.00000000       0.00000000       3.55656566       0.00000000       0.00000000      -1.10283077
2
Properties=species:S:1:pos:R:3:forces:R:3 energy=-7.464697024479272 pbc="F F F"
Tc       0.00000000       0.00000000       0.00000000       0.00000000       0.00000000       1.01818216
Tc       0.00000000       0.00000000       3.61616162       0.00000000       0.00000000      -1.01818216
2
Properties=species:S:1:pos:R:3:forces:R:3 energy=-7.406541531293238 pbc="F F F"
Tc       0.00000000       0.00000000       0.00000000       0.00000000       0.00000000       0.93335539
Tc       0.00000000       0.00000000       3.67575758       0.00000000       0.00000000      -0.93335539
2
Properties=species:S:1:pos:R:3:forces:R:3 energy=-7.353469726643481 pbc="F F F"
Tc       0.00000000       0.00000000       0.00000000       0.00000000       0.00000000       0.84754080
Tc       0.00000000       0.00000000       3.73535354       0.00000000       0.00000000      -0.84754080
2
Properties=species:S:1:pos:R:3:forces:R:3 energy=-7.3055267816833105 pbc="F F F"
Tc       0.00000000       0.00000000       0.00000000       0.00000000       0.00000000       0.76147676
Tc       0.00000000       0.00000000       3.79494949       0.00000000       0.00000000      -0.76147676
2
Properties=species:S:1:pos:R:3:forces:R:3 energy=-7.262678683927521 pbc="F F F"
Tc       0.00000000       0.00000000       0.00000000       0.00000000       0.00000000       0.67687690
Tc       0.00000000       0.00000000       3.85454545       0.00000000       0.00000000      -0.67687690
2
Properties=species:S:1:pos:R:3:forces:R:3 energy=-7.224778253437445 pbc="F F F"
Tc       0.00000000       0.00000000       0.00000000       0.00000000       0.00000000       0.59579313
Tc       0.00000000       0.00000000       3.91414141       0.00000000       0.00000000      -0.59579313
2
Properties=species:S:1:pos:R:3:forces:R:3 energy=-7.191557424727396 pbc="F F F"
Tc       0.00000000       0.00000000       0.00000000       0.00000000       0.00000000       0.52009916
Tc       0.00000000       0.00000000       3.97373737       0.00000000       0.00000000      -0.52009916
2
Properties=species:S:1:pos:R:3:forces:R:3 energy=-7.162651247013691 pbc="F F F"
Tc       0.00000000       0.00000000       0.00000000       0.00000000       0.00000000       0.45119369
Tc       0.00000000       0.00000000       4.03333333       0.00000000       0.00000000      -0.45119369
2
Properties=species:S:1:pos:R:3:forces:R:3 energy=-7.137627321405566 pbc="F F F"
Tc       0.00000000       0.00000000       0.00000000       0.00000000       0.00000000       0.38989401
Tc       0.00000000       0.00000000       4.09292929       0.00000000       0.00000000      -0.38989401
2
Properties=species:S:1:pos:R:3:forces:R:3 energy=-7.116022587058456 pbc="F F F"
Tc       0.00000000       0.00000000       0.00000000       0.00000000       0.00000000       0.33646575
Tc       0.00000000       0.00000000       4.15252525       0.00000000       0.00000000      -0.33646575
2
Properties=species:S:1:pos:R:3:forces:R:3 energy=-7.097370361507826 pbc="F F F"
Tc       0.00000000       0.00000000       0.00000000       0.00000000       0.00000000       0.29074681
Tc       0.00000000       0.00000000       4.21212121       0.00000000       0.00000000      -0.29074681
2
Properties=species:S:1:pos:R:3:forces:R:3 energy=-7.081224030471625 pbc="F F F"
Tc       0.00000000       0.00000000       0.00000000       0.00000000       0.00000000       0.25226039
Tc       0.00000000       0.00000000       4.27171717       0.00000000       0.00000000      -0.25226039
2
Properties=species:S:1:pos:R:3:forces:R:3 energy=-7.067172287632416 pbc="F F F"
Tc       0.00000000       0.00000000       0.00000000       0.00000000       0.00000000       0.22034402
Tc       0.00000000       0.00000000       4.33131313       0.00000000       0.00000000      -0.22034402
2
Properties=species:S:1:pos:R:3:forces:R:3 energy=-7.054845983083819 pbc="F F F"
Tc       0.00000000       0.00000000       0.00000000       0.00000000       0.00000000       0.19422111
Tc       0.00000000       0.00000000       4.39090909       0.00000000       0.00000000      -0.19422111
2
Properties=species:S:1:pos:R:3:forces:R:3 energy=-7.043924125808598 pbc="F F F"
Tc       0.00000000       0.00000000       0.00000000       0.00000000       0.00000000       0.17306030
Tc       0.00000000       0.00000000       4.45050505       0.00000000       0.00000000      -0.17306030
2
Properties=species:S:1:pos:R:3:forces:R:3 energy=-7.0341366560025875 pbc="F F F"
Tc       0.00000000       0.00000000       0.00000000       0.00000000       0.00000000       0.15600473
Tc       0.00000000       0.00000000       4.51010101       0.00000000       0.00000000      -0.15600473
2
Properties=species:S:1:pos:R:3:forces:R:3 energy=-7.025264923575687 pbc="F F F"
Tc       0.00000000       0.00000000       0.00000000       0.00000000       0.00000000       0.14219543
Tc       0.00000000       0.00000000       4.56969697       0.00000000       0.00000000      -0.14219543
2
Properties=species:S:1:pos:R:3:forces:R:3 energy=-7.017140282982967 pbc="F F F"
Tc       0.00000000       0.00000000       0.00000000       0.00000000       0.00000000       0.13080034
Tc       0.00000000       0.00000000       4.62929293       0.00000000       0.00000000      -0.13080034
2
Properties=species:S:1:pos:R:3:forces:R:3 energy=-7.009642295245821 pbc="F F F"
Tc       0.00000000       0.00000000       0.00000000       0.00000000       0.00000000       0.12105060
Tc       0.00000000       0.00000000       4.68888889       0.00000000       0.00000000      -0.12105060
2
Properties=species:S:1:pos:R:3:forces:R:3 energy=-7.002692434034246 pbc="F F F"
Tc       0.00000000       0.00000000       0.00000000       0.00000000       0.00000000       0.11228808
Tc       0.00000000       0.00000000       4.74848485       0.00000000       0.00000000      -0.11228808
2
Properties=species:S:1:pos:R:3:forces:R:3 energy=-6.996248479326376 pbc="F F F"
Tc       0.00000000       0.00000000       0.00000000       0.00000000       0.00000000       0.10403175
Tc       0.00000000       0.00000000       4.80808081       0.00000000       0.00000000      -0.10403175
2
Properties=species:S:1:pos:R:3:forces:R:3 energy=-6.990287948485191 pbc="F F F"
Tc       0.00000000       0.00000000       0.00000000       0.00000000       0.00000000       0.09602632
Tc       0.00000000       0.00000000       4.86767677       0.00000000       0.00000000      -0.09602632
2
Properties=species:S:1:pos:R:3:forces:R:3 energy=-6.984797358750905 pbc="F F F"
Tc       0.00000000       0.00000000       0.00000000       0.00000000       0.00000000       0.08828579
Tc       0.00000000       0.00000000       4.92727273       0.00000000       0.00000000      -0.08828579
2
Properties=species:S:1:pos:R:3:forces:R:3 energy=-6.979754495567092 pbc="F F F"
Tc       0.00000000       0.00000000       0.00000000       0.00000000       0.00000000       0.08107609
Tc       0.00000000       0.00000000       4.98686869       0.00000000       0.00000000      -0.08107609
2
Properties=species:S:1:pos:R:3:forces:R:3 energy=-6.975115140335811 pbc="F F F"
Tc       0.00000000       0.00000000       0.00000000       0.00000000       0.00000000       0.07483129
Tc       0.00000000       0.00000000       5.04646465       0.00000000       0.00000000      -0.07483129
2
Properties=species:S:1:pos:R:3:forces:R:3 energy=-6.970807167805847 pbc="F F F"
Tc       0.00000000       0.00000000       0.00000000       0.00000000       0.00000000       0.06999318
Tc       0.00000000       0.00000000       5.10606061       0.00000000       0.00000000      -0.06999318
2
Properties=species:S:1:pos:R:3:forces:R:3 energy=-6.966739306539597 pbc="F F F"
Tc       0.00000000       0.00000000       0.00000000       0.00000000       0.00000000       0.06678189
Tc       0.00000000       0.00000000       5.16565657       0.00000000       0.00000000      -0.06678189
2
Properties=species:S:1:pos:R:3:forces:R:3 energy=-6.962819786247394 pbc="F F F"
Tc       0.00000000       0.00000000       0.00000000       0.00000000       0.00000000       0.06491838
Tc       0.00000000       0.00000000       5.22525253       0.00000000       0.00000000      -0.06491838
2
Properties=species:S:1:pos:R:3:forces:R:3 energy=-6.958995349735461 pbc="F F F"
Tc       0.00000000       0.00000000       0.00000000       0.00000000       0.00000000       0.06336288
Tc       0.00000000       0.00000000       5.28484848       0.00000000       0.00000000      -0.06336288
2
Properties=species:S:1:pos:R:3:forces:R:3 energy=-6.955293938503116 pbc="F F F"
Tc       0.00000000       0.00000000       0.00000000       0.00000000       0.00000000       0.06050273
Tc       0.00000000       0.00000000       5.34444444       0.00000000       0.00000000      -0.06050273
2
Properties=species:S:1:pos:R:3:forces:R:3 energy=-6.95181940952017 pbc="F F F"
Tc       0.00000000       0.00000000       0.00000000       0.00000000       0.00000000       0.05600421
Tc       0.00000000       0.00000000       5.40404040       0.00000000       0.00000000      -0.05600421
2
Properties=species:S:1:pos:R:3:forces:R:3 energy=-6.9485791102449825 pbc="F F F"
Tc       0.00000000       0.00000000       0.00000000       0.00000000       0.00000000       0.05349907
Tc       0.00000000       0.00000000       5.46363636       0.00000000       0.00000000      -0.05349907
2
Properties=species:S:1:pos:R:3:forces:R:3 energy=-6.945350383227101 pbc="F F F"
Tc       0.00000000       0.00000000       0.00000000       0.00000000       0.00000000       0.05520253
Tc       0.00000000       0.00000000       5.52323232       0.00000000       0.00000000      -0.05520253
2
Properties=species:S:1:pos:R:3:forces:R:3 energy=-6.942051697471801 pbc="F F F"
Tc       0.00000000       0.00000000       0.00000000       0.00000000       0.00000000       0.05451945
Tc       0.00000000       0.00000000       5.58282828       0.00000000       0.00000000      -0.05451945
2
Properties=species:S:1:pos:R:3:forces:R:3 energy=-6.938958668344047 pbc="F F F"
Tc       0.00000000       0.00000000       0.00000000       0.00000000       0.00000000       0.04884011
Tc       0.00000000       0.00000000       5.64242424       0.00000000       0.00000000      -0.04884011
2
Properties=species:S:1:pos:R:3:forces:R:3 energy=-6.936183023442213 pbc="F F F"
Tc       0.00000000       0.00000000       0.00000000       0.00000000       0.00000000       0.04564952
Tc       0.00000000       0.00000000       5.70202020       0.00000000       0.00000000      -0.04564952
2
Properties=species:S:1:pos:R:3:forces:R:3 energy=-6.933282600487828 pbc="F F F"
Tc       0.00000000       0.00000000       0.00000000       0.00000000       0.00000000       0.05343768
Tc       0.00000000       0.00000000       5.76161616       0.00000000       0.00000000      -0.05343768
2
Properties=species:S:1:pos:R:3:forces:R:3 energy=-6.929831692084119 pbc="F F F"
Tc       0.00000000       0.00000000       0.00000000       0.00000000       0.00000000       0.05993531
Tc       0.00000000       0.00000000       5.82121212       0.00000000       0.00000000      -0.05993531
2
Properties=species:S:1:pos:R:3:forces:R:3 energy=-6.926545529105363 pbc="F F F"
Tc       0.00000000       0.00000000       0.00000000       0.00000000       0.00000000       0.04760935
Tc       0.00000000       0.00000000       5.88080808       0.00000000       0.00000000      -0.04760935
2
Properties=species:S:1:pos:R:3:forces:R:3 energy=-6.924306097630946 pbc="F F F"
Tc       0.00000000       0.00000000       0.00000000       0.00000000       0.00000000       0.02762103
Tc       0.00000000       0.00000000       5.94040404       0.00000000       0.00000000      -0.02762103
2
Properties=species:S:1:pos:R:3:forces:R:3 energy=-6.923024999532464 pbc="F F F"
Tc       0.00000000       0.00000000       0.00000000       0.00000000       0.00000000       0.01818999
Tc       0.00000000       0.00000000       6.00000000       0.00000000       0.00000000      -0.01818999
