2
Properties=species:S:1:pos:R:3:forces:R:3 energy=45008.43220807465 pbc="F F F"
Te       0.00000000       0.00000000       0.00000000       0.00000000       0.00000000 -1088631.12500000
Te       0.00000000       0.00000000       0.10000000       0.00000000       0.00000000 1088631.12500000
2
Properties=species:S:1:pos:R:3:forces:R:3 energy=13116.639239324648 pbc="F F F"
Te       0.00000000       0.00000000       0.00000000       0.00000000       0.00000000 -235388.96875000
Te       0.00000000       0.00000000       0.15959596       0.00000000       0.00000000  235388.96875000
2
Properties=species:S:1:pos:R:3:forces:R:3 energy=5020.899981512148 pbc="F F F"
Te       0.00000000       0.00000000       0.00000000       0.00000000       0.00000000  -73009.60156250
Te       0.00000000       0.00000000       0.21919192       0.00000000       0.00000000   73009.60156250
2
Properties=species:S:1:pos:R:3:forces:R:3 energy=2282.8753233090233 pbc="F F F"
Te       0.00000000       0.00000000       0.00000000       0.00000000       0.00000000  -27215.00195312
Te       0.00000000       0.00000000       0.27878788       0.00000000       0.00000000   27215.00195312
2
Properties=species:S:1:pos:R:3:forces:R:3 energy=1223.8783750700036 pbc="F F F"
Te       0.00000000       0.00000000       0.00000000       0.00000000       0.00000000  -10850.39843750
Te       0.00000000       0.00000000       0.33838384       0.00000000       0.00000000   10850.39843750
2
Properties=species:S:1:pos:R:3:forces:R:3 energy=795.223773025558 pbc="F F F"
Te       0.00000000       0.00000000       0.00000000       0.00000000       0.00000000   -4469.15869141
Te       0.00000000       0.00000000       0.39797980       0.00000000       0.00000000    4469.15869141
2
Properties=species:S:1:pos:R:3:forces:R:3 energy=614.5998716710418 pbc="F F F"
Te       0.00000000       0.00000000       0.00000000       0.00000000       0.00000000   -2047.61499023
Te       0.00000000       0.00000000       0.45757576       0.00000000       0.00000000    2047.61499023
2
Properties=species:S:1:pos:R:3:forces:R:3 energy=510.3944273604469 pbc="F F F"
Te       0.00000000       0.00000000       0.00000000       0.00000000       0.00000000   -1553.63000488
Te       0.00000000       0.00000000       0.51717172       0.00000000       0.00000000    1553.63000488
2
Properties=species:S:1:pos:R:3:forces:R:3 energy=429.7787047485464 pbc="F F F"
Te       0.00000000       0.00000000       0.00000000       0.00000000       0.00000000   -1125.00793457
Te       0.00000000       0.00000000       0.57676768       0.00000000       0.00000000    1125.00793457
2
Properties=species:S:1:pos:R:3:forces:R:3 energy=378.53956908872226 pbc="F F F"
Te       0.00000000       0.00000000       0.00000000       0.00000000       0.00000000    -616.48797607
Te       0.00000000       0.00000000       0.63636364       0.00000000       0.00000000     616.48797607
2
Properties=species:S:1:pos:R:3:forces:R:3 energy=320.2205384505486 pbc="F F F"
Te       0.00000000       0.00000000       0.00000000       0.00000000       0.00000000   -1139.13244629
Te       0.00000000       0.00000000       0.69595960       0.00000000       0.00000000    1139.13244629
2
Properties=species:S:1:pos:R:3:forces:R:3 energy=269.49412873167637 pbc="F F F"
Te       0.00000000       0.00000000       0.00000000       0.00000000       0.00000000    -601.34527588
Te       0.00000000       0.00000000       0.75555556       0.00000000       0.00000000     601.34527588
2
Properties=species:S:1:pos:R:3:forces:R:3 energy=233.0461614906513 pbc="F F F"
Te       0.00000000       0.00000000       0.00000000       0.00000000       0.00000000    -656.84118652
Te       0.00000000       0.00000000       0.81515152       0.00000000       0.00000000     656.84118652
2
Properties=species:S:1:pos:R:3:forces:R:3 energy=197.56795145641726 pbc="F F F"
Te       0.00000000       0.00000000       0.00000000       0.00000000       0.00000000    -531.53808594
Te       0.00000000       0.00000000       0.87474747       0.00000000       0.00000000     531.53808594
2
Properties=species:S:1:pos:R:3:forces:R:3 energy=169.92368019504624 pbc="F F F"
Te       0.00000000       0.00000000       0.00000000       0.00000000       0.00000000    -395.59759521
Te       0.00000000       0.00000000       0.93434343       0.00000000       0.00000000     395.59759521
2
Properties=species:S:1:pos:R:3:forces:R:3 energy=149.61411069984436 pbc="F F F"
Te       0.00000000       0.00000000       0.00000000       0.00000000       0.00000000    -295.57061768
Te       0.00000000       0.00000000       0.99393939       0.00000000       0.00000000     295.57061768
2
Properties=species:S:1:pos:R:3:forces:R:3 energy=133.94147386279334 pbc="F F F"
Te       0.00000000       0.00000000       0.00000000       0.00000000       0.00000000    -234.17964172
Te       0.00000000       0.00000000       1.05353535       0.00000000       0.00000000     234.17964172
2
Properties=species:S:1:pos:R:3:forces:R:3 energy=121.33461041613488 pbc="F F F"
Te       0.00000000       0.00000000       0.00000000       0.00000000       0.00000000    -193.17109680
Te       0.00000000       0.00000000       1.11313131       0.00000000       0.00000000     193.17109680
2
Properties=species:S:1:pos:R:3:forces:R:3 energy=110.15508507846283 pbc="F F F"
Te       0.00000000       0.00000000       0.00000000       0.00000000       0.00000000    -189.29081726
Te       0.00000000       0.00000000       1.17272727       0.00000000       0.00000000     189.29081726
2
Properties=species:S:1:pos:R:3:forces:R:3 energy=98.1060534940682 pbc="F F F"
Te       0.00000000       0.00000000       0.00000000       0.00000000       0.00000000    -217.26190186
Te       0.00000000       0.00000000       1.23232323       0.00000000       0.00000000     217.26190186
2
Properties=species:S:1:pos:R:3:forces:R:3 energy=84.52237755137062 pbc="F F F"
Te       0.00000000       0.00000000       0.00000000       0.00000000       0.00000000    -233.32652283
Te       0.00000000       0.00000000       1.29191919       0.00000000       0.00000000     233.32652283
2
Properties=species:S:1:pos:R:3:forces:R:3 energy=70.9045838306482 pbc="F F F"
Te       0.00000000       0.00000000       0.00000000       0.00000000       0.00000000    -219.99555969
Te       0.00000000       0.00000000       1.35151515       0.00000000       0.00000000     219.99555969
2
Properties=species:S:1:pos:R:3:forces:R:3 energy=58.490492193601135 pbc="F F F"
Te       0.00000000       0.00000000       0.00000000       0.00000000       0.00000000    -196.91082764
Te       0.00000000       0.00000000       1.41111111       0.00000000       0.00000000     196.91082764
2
Properties=species:S:1:pos:R:3:forces:R:3 energy=47.38964570865666 pbc="F F F"
Te       0.00000000       0.00000000       0.00000000       0.00000000       0.00000000    -175.38485718
Te       0.00000000       0.00000000       1.47070707       0.00000000       0.00000000     175.38485718
2
Properties=species:S:1:pos:R:3:forces:R:3 energy=37.59796289049503 pbc="F F F"
Te       0.00000000       0.00000000       0.00000000       0.00000000       0.00000000    -153.38511658
Te       0.00000000       0.00000000       1.53030303       0.00000000       0.00000000     153.38511658
2
Properties=species:S:1:pos:R:3:forces:R:3 energy=29.109487380775626 pbc="F F F"
Te       0.00000000       0.00000000       0.00000000       0.00000000       0.00000000    -131.25640869
Te       0.00000000       0.00000000       1.58989899       0.00000000       0.00000000     131.25640869
2
Properties=species:S:1:pos:R:3:forces:R:3 energy=21.9713157550577 pbc="F F F"
Te       0.00000000       0.00000000       0.00000000       0.00000000       0.00000000    -108.35484314
Te       0.00000000       0.00000000       1.64949495       0.00000000       0.00000000     108.35484314
2
Properties=species:S:1:pos:R:3:forces:R:3 energy=16.15957223497259 pbc="F F F"
Te       0.00000000       0.00000000       0.00000000       0.00000000       0.00000000     -87.15631104
Te       0.00000000       0.00000000       1.70909091       0.00000000       0.00000000      87.15631104
2
Properties=species:S:1:pos:R:3:forces:R:3 energy=11.51629145503254 pbc="F F F"
Te       0.00000000       0.00000000       0.00000000       0.00000000       0.00000000     -69.26196289
Te       0.00000000       0.00000000       1.76868687       0.00000000       0.00000000      69.26196289
2
Properties=species:S:1:pos:R:3:forces:R:3 energy=7.836075460721269 pbc="F F F"
Te       0.00000000       0.00000000       0.00000000       0.00000000       0.00000000     -54.77336884
Te       0.00000000       0.00000000       1.82828283       0.00000000       0.00000000      54.77336884
2
Properties=species:S:1:pos:R:3:forces:R:3 energy=4.930462523679821 pbc="F F F"
Te       0.00000000       0.00000000       0.00000000       0.00000000       0.00000000     -43.16960907
Te       0.00000000       0.00000000       1.88787879       0.00000000       0.00000000      43.16960907
2
Properties=species:S:1:pos:R:3:forces:R:3 energy=2.6441720933686734 pbc="F F F"
Te       0.00000000       0.00000000       0.00000000       0.00000000       0.00000000     -33.90617752
Te       0.00000000       0.00000000       1.94747475       0.00000000       0.00000000      33.90617752
2
Properties=species:S:1:pos:R:3:forces:R:3 energy=0.851876677198923 pbc="F F F"
Te       0.00000000       0.00000000       0.00000000       0.00000000       0.00000000     -26.51998901
Te       0.00000000       0.00000000       2.00707071       0.00000000       0.00000000      26.51998901
2
Properties=species:S:1:pos:R:3:forces:R:3 energy=-0.5461628584690388 pbc="F F F"
Te       0.00000000       0.00000000       0.00000000       0.00000000       0.00000000     -20.61491394
Te       0.00000000       0.00000000       2.06666667       0.00000000       0.00000000      20.61491394
2
Properties=species:S:1:pos:R:3:forces:R:3 energy=-1.6281798566163064 pbc="F F F"
Te       0.00000000       0.00000000       0.00000000       0.00000000       0.00000000     -15.86654758
Te       0.00000000       0.00000000       2.12626263       0.00000000       0.00000000      15.86654758
2
Properties=species:S:1:pos:R:3:forces:R:3 energy=-2.455376230193807 pbc="F F F"
Te       0.00000000       0.00000000       0.00000000       0.00000000       0.00000000     -12.02903080
Te       0.00000000       0.00000000       2.18585859       0.00000000       0.00000000      12.02903080
2
Properties=species:S:1:pos:R:3:forces:R:3 energy=-3.0764876037043662 pbc="F F F"
Te       0.00000000       0.00000000       0.00000000       0.00000000       0.00000000      -8.92512798
Te       0.00000000       0.00000000       2.24545455       0.00000000       0.00000000       8.92512798
2
Properties=species:S:1:pos:R:3:forces:R:3 energy=-3.5311158760003454 pbc="F F F"
Te       0.00000000       0.00000000       0.00000000       0.00000000       0.00000000      -6.42242670
Te       0.00000000       0.00000000       2.30505051       0.00000000       0.00000000       6.42242670
2
Properties=species:S:1:pos:R:3:forces:R:3 energy=-3.851720608881737 pbc="F F F"
Te       0.00000000       0.00000000       0.00000000       0.00000000       0.00000000      -4.41001844
Te       0.00000000       0.00000000       2.36464646       0.00000000       0.00000000       4.41001844
2
Properties=species:S:1:pos:R:3:forces:R:3 energy=-4.064516088503373 pbc="F F F"
Te       0.00000000       0.00000000       0.00000000       0.00000000       0.00000000      -2.78885221
Te       0.00000000       0.00000000       2.42424242       0.00000000       0.00000000       2.78885221
2
Properties=species:S:1:pos:R:3:forces:R:3 energy=-4.190187140312764 pbc="F F F"
Te       0.00000000       0.00000000       0.00000000       0.00000000       0.00000000      -1.47324097
Te       0.00000000       0.00000000       2.48383838       0.00000000       0.00000000       1.47324097
2
Properties=species:S:1:pos:R:3:forces:R:3 energy=-4.244817931806546 pbc="F F F"
Te       0.00000000       0.00000000       0.00000000       0.00000000       0.00000000      -0.39503762
Te       0.00000000       0.00000000       2.54343434       0.00000000       0.00000000       0.39503762
2
Properties=species:S:1:pos:R:3:forces:R:3 energy=-4.241014567578133 pbc="F F F"
Te       0.00000000       0.00000000       0.00000000       0.00000000       0.00000000       0.49414870
Te       0.00000000       0.00000000       2.60303030       0.00000000       0.00000000      -0.49414870
2
Properties=species:S:1:pos:R:3:forces:R:3 energy=-4.189080690981496 pbc="F F F"
Te       0.00000000       0.00000000       0.00000000       0.00000000       0.00000000       1.22352386
Te       0.00000000       0.00000000       2.66262626       0.00000000       0.00000000      -1.22352386
2
Properties=species:S:1:pos:R:3:forces:R:3 energy=-4.098099387965426 pbc="F F F"
Te       0.00000000       0.00000000       0.00000000       0.00000000       0.00000000       1.80562580
Te       0.00000000       0.00000000       2.72222222       0.00000000       0.00000000      -1.80562580
2
Properties=species:S:1:pos:R:3:forces:R:3 energy=-3.9767605202137846 pbc="F F F"
Te       0.00000000       0.00000000       0.00000000       0.00000000       0.00000000       2.24192381
Te       0.00000000       0.00000000       2.78181818       0.00000000       0.00000000      -2.24192381
2
Properties=species:S:1:pos:R:3:forces:R:3 energy=-3.8337958160456886 pbc="F F F"
Te       0.00000000       0.00000000       0.00000000       0.00000000       0.00000000       2.53168631
Te       0.00000000       0.00000000       2.84141414       0.00000000       0.00000000      -2.53168631
2
Properties=species:S:1:pos:R:3:forces:R:3 energy=-3.6777837996682985 pbc="F F F"
Te       0.00000000       0.00000000       0.00000000       0.00000000       0.00000000       2.68204641
Te       0.00000000       0.00000000       2.90101010       0.00000000       0.00000000      -2.68204641
2
Properties=species:S:1:pos:R:3:forces:R:3 energy=-3.516475098276181 pbc="F F F"
Te       0.00000000       0.00000000       0.00000000       0.00000000       0.00000000       2.71416092
Te       0.00000000       0.00000000       2.96060606       0.00000000       0.00000000      -2.71416092
2
Properties=species:S:1:pos:R:3:forces:R:3 energy=-3.355965561237557 pbc="F F F"
Te       0.00000000       0.00000000       0.00000000       0.00000000       0.00000000       2.66142702
Te       0.00000000       0.00000000       3.02020202       0.00000000       0.00000000      -2.66142702
2
Properties=species:S:1:pos:R:3:forces:R:3 energy=-3.2002054164285525 pbc="F F F"
Te       0.00000000       0.00000000       0.00000000       0.00000000       0.00000000       2.56057453
Te       0.00000000       0.00000000       3.07979798       0.00000000       0.00000000      -2.56057453
2
Properties=species:S:1:pos:R:3:forces:R:3 energy=-3.0511259718690082 pbc="F F F"
Te       0.00000000       0.00000000       0.00000000       0.00000000       0.00000000       2.44112539
Te       0.00000000       0.00000000       3.13939394       0.00000000       0.00000000      -2.44112539
2
Properties=species:S:1:pos:R:3:forces:R:3 energy=-2.9092805268767146 pbc="F F F"
Te       0.00000000       0.00000000       0.00000000       0.00000000       0.00000000       2.31934571
Te       0.00000000       0.00000000       3.19898990       0.00000000       0.00000000      -2.31934571
2
Properties=species:S:1:pos:R:3:forces:R:3 energy=-2.774643540969021 pbc="F F F"
Te       0.00000000       0.00000000       0.00000000       0.00000000       0.00000000       2.19908071
Te       0.00000000       0.00000000       3.25858586       0.00000000       0.00000000      -2.19908071
2
Properties=species:S:1:pos:R:3:forces:R:3 energy=-2.647198554240053 pbc="F F F"
Te       0.00000000       0.00000000       0.00000000       0.00000000       0.00000000       2.07725334
Te       0.00000000       0.00000000       3.31818182       0.00000000       0.00000000      -2.07725334
2
Properties=species:S:1:pos:R:3:forces:R:3 energy=-2.5271634889182213 pbc="F F F"
Te       0.00000000       0.00000000       0.00000000       0.00000000       0.00000000       1.94993067
Te       0.00000000       0.00000000       3.37777778       0.00000000       0.00000000      -1.94993067
2
Properties=species:S:1:pos:R:3:forces:R:3 energy=-2.4149182206434796 pbc="F F F"
Te       0.00000000       0.00000000       0.00000000       0.00000000       0.00000000       1.81588221
Te       0.00000000       0.00000000       3.43737374       0.00000000       0.00000000      -1.81588221
2
Properties=species:S:1:pos:R:3:forces:R:3 energy=-2.3108210143364323 pbc="F F F"
Te       0.00000000       0.00000000       0.00000000       0.00000000       0.00000000       1.67702758
Te       0.00000000       0.00000000       3.49696970       0.00000000       0.00000000      -1.67702758
2
Properties=species:S:1:pos:R:3:forces:R:3 energy=-2.2150535474501085 pbc="F F F"
Te       0.00000000       0.00000000       0.00000000       0.00000000       0.00000000       1.53699470
Te       0.00000000       0.00000000       3.55656566       0.00000000       0.00000000      -1.53699470
2
Properties=species:S:1:pos:R:3:forces:R:3 energy=-2.1275739676843757 pbc="F F F"
Te       0.00000000       0.00000000       0.00000000       0.00000000       0.00000000       1.39945436
Te       0.00000000       0.00000000       3.61616162       0.00000000       0.00000000      -1.39945436
2
Properties=species:S:1:pos:R:3:forces:R:3 energy=-2.0481460822548154 pbc="F F F"
Te       0.00000000       0.00000000       0.00000000       0.00000000       0.00000000       1.26712799
Te       0.00000000       0.00000000       3.67575758       0.00000000       0.00000000      -1.26712799
2
Properties=species:S:1:pos:R:3:forces:R:3 energy=-1.976406902378602 pbc="F F F"
Te       0.00000000       0.00000000       0.00000000       0.00000000       0.00000000       1.14161110
Te       0.00000000       0.00000000       3.73535354       0.00000000       0.00000000      -1.14161110
2
Properties=species:S:1:pos:R:3:forces:R:3 energy=-1.911923931089669 pbc="F F F"
Te       0.00000000       0.00000000       0.00000000       0.00000000       0.00000000       1.02368462
Te       0.00000000       0.00000000       3.79494949       0.00000000       0.00000000      -1.02368462
2
Properties=species:S:1:pos:R:3:forces:R:3 energy=-1.8542342693894083 pbc="F F F"
Te       0.00000000       0.00000000       0.00000000       0.00000000       0.00000000       0.91367346
Te       0.00000000       0.00000000       3.85454545       0.00000000       0.00000000      -0.91367346
2
Properties=species:S:1:pos:R:3:forces:R:3 energy=-1.8028611218135233 pbc="F F F"
Te       0.00000000       0.00000000       0.00000000       0.00000000       0.00000000       0.81175059
Te       0.00000000       0.00000000       3.91414141       0.00000000       0.00000000      -0.81175059
2
Properties=species:S:1:pos:R:3:forces:R:3 energy=-1.7573162748205655 pbc="F F F"
Te       0.00000000       0.00000000       0.00000000       0.00000000       0.00000000       0.71806896
Te       0.00000000       0.00000000       3.97373737       0.00000000       0.00000000      -0.71806896
2
Properties=species:S:1:pos:R:3:forces:R:3 energy=-1.7171058101662846 pbc="F F F"
Te       0.00000000       0.00000000       0.00000000       0.00000000       0.00000000       0.63280255
Te       0.00000000       0.00000000       4.03333333       0.00000000       0.00000000      -0.63280255
2
Properties=species:S:1:pos:R:3:forces:R:3 energy=-1.68172118954949 pbc="F F F"
Te       0.00000000       0.00000000       0.00000000       0.00000000       0.00000000       0.55609822
Te       0.00000000       0.00000000       4.09292929       0.00000000       0.00000000      -0.55609822
2
Properties=species:S:1:pos:R:3:forces:R:3 energy=-1.6506511703733129 pbc="F F F"
Te       0.00000000       0.00000000       0.00000000       0.00000000       0.00000000       0.48803675
Te       0.00000000       0.00000000       4.15252525       0.00000000       0.00000000      -0.48803675
2
Properties=species:S:1:pos:R:3:forces:R:3 energy=-1.6233805859738304 pbc="F F F"
Te       0.00000000       0.00000000       0.00000000       0.00000000       0.00000000       0.42858249
Te       0.00000000       0.00000000       4.21212121       0.00000000       0.00000000      -0.42858249
2
Properties=species:S:1:pos:R:3:forces:R:3 energy=-1.5994004162211852 pbc="F F F"
Te       0.00000000       0.00000000       0.00000000       0.00000000       0.00000000       0.37754431
Te       0.00000000       0.00000000       4.27171717       0.00000000       0.00000000      -0.37754431
2
Properties=species:S:1:pos:R:3:forces:R:3 energy=-1.578220419368505 pbc="F F F"
Te       0.00000000       0.00000000       0.00000000       0.00000000       0.00000000       0.33454803
Te       0.00000000       0.00000000       4.33131313       0.00000000       0.00000000      -0.33454803
2
Properties=species:S:1:pos:R:3:forces:R:3 energy=-1.5593767297682113 pbc="F F F"
Te       0.00000000       0.00000000       0.00000000       0.00000000       0.00000000       0.29901668
Te       0.00000000       0.00000000       4.39090909       0.00000000       0.00000000      -0.29901668
2
Properties=species:S:1:pos:R:3:forces:R:3 energy=-1.5424466248167317 pbc="F F F"
Te       0.00000000       0.00000000       0.00000000       0.00000000       0.00000000       0.27018216
Te       0.00000000       0.00000000       4.45050505       0.00000000       0.00000000      -0.27018216
2
Properties=species:S:1:pos:R:3:forces:R:3 energy=-1.5270588244707326 pbc="F F F"
Te       0.00000000       0.00000000       0.00000000       0.00000000       0.00000000       0.24709623
Te       0.00000000       0.00000000       4.51010101       0.00000000       0.00000000      -0.24709623
2
Properties=species:S:1:pos:R:3:forces:R:3 energy=-1.5129017333591281 pbc="F F F"
Te       0.00000000       0.00000000       0.00000000       0.00000000       0.00000000       0.22867933
Te       0.00000000       0.00000000       4.56969697       0.00000000       0.00000000      -0.22867933
2
Properties=species:S:1:pos:R:3:forces:R:3 energy=-1.4997319204817479 pbc="F F F"
Te       0.00000000       0.00000000       0.00000000       0.00000000       0.00000000       0.21378726
Te       0.00000000       0.00000000       4.62929293       0.00000000       0.00000000      -0.21378726
2
Properties=species:S:1:pos:R:3:forces:R:3 energy=-1.4873724669503128 pbc="F F F"
Te       0.00000000       0.00000000       0.00000000       0.00000000       0.00000000       0.20130615
Te       0.00000000       0.00000000       4.68888889       0.00000000       0.00000000      -0.20130615
2
Properties=species:S:1:pos:R:3:forces:R:3 energy=-1.4757095722754805 pbc="F F F"
Te       0.00000000       0.00000000       0.00000000       0.00000000       0.00000000       0.19025329
Te       0.00000000       0.00000000       4.74848485       0.00000000       0.00000000      -0.19025329
2
Properties=species:S:1:pos:R:3:forces:R:3 energy=-1.4646821313055485 pbc="F F F"
Te       0.00000000       0.00000000       0.00000000       0.00000000       0.00000000       0.17990860
Te       0.00000000       0.00000000       4.80808081       0.00000000       0.00000000      -0.17990860
2
Properties=species:S:1:pos:R:3:forces:R:3 energy=-1.4542592115902835 pbc="F F F"
Te       0.00000000       0.00000000       0.00000000       0.00000000       0.00000000       0.16991729
Te       0.00000000       0.00000000       4.86767677       0.00000000       0.00000000      -0.16991729
2
Properties=species:S:1:pos:R:3:forces:R:3 energy=-1.4444201549330347 pbc="F F F"
Te       0.00000000       0.00000000       0.00000000       0.00000000       0.00000000       0.16037700
Te       0.00000000       0.00000000       4.92727273       0.00000000       0.00000000      -0.16037700
2
Properties=species:S:1:pos:R:3:forces:R:3 energy=-1.43512360239834 pbc="F F F"
Te       0.00000000       0.00000000       0.00000000       0.00000000       0.00000000       0.15184838
Te       0.00000000       0.00000000       4.98686869       0.00000000       0.00000000      -0.15184838
2
Properties=species:S:1:pos:R:3:forces:R:3 energy=-1.4262833914447253 pbc="F F F"
Te       0.00000000       0.00000000       0.00000000       0.00000000       0.00000000       0.14527297
Te       0.00000000       0.00000000       5.04646465       0.00000000       0.00000000      -0.14527297
2
Properties=species:S:1:pos:R:3:forces:R:3 energy=-1.4177494000749982 pbc="F F F"
Te       0.00000000       0.00000000       0.00000000       0.00000000       0.00000000       0.14168634
Te       0.00000000       0.00000000       5.10606061       0.00000000       0.00000000      -0.14168634
2
Properties=species:S:1:pos:R:3:forces:R:3 energy=-1.4093210154860987 pbc="F F F"
Te       0.00000000       0.00000000       0.00000000       0.00000000       0.00000000       0.14173301
Te       0.00000000       0.00000000       5.16565657       0.00000000       0.00000000      -0.14173301
2
Properties=species:S:1:pos:R:3:forces:R:3 energy=-1.4007901638708935 pbc="F F F"
Te       0.00000000       0.00000000       0.00000000       0.00000000       0.00000000       0.14499597
Te       0.00000000       0.00000000       5.22525253       0.00000000       0.00000000      -0.14499597
2
Properties=species:S:1:pos:R:3:forces:R:3 energy=-1.3920139136272454 pbc="F F F"
Te       0.00000000       0.00000000       0.00000000       0.00000000       0.00000000       0.14949730
Te       0.00000000       0.00000000       5.28484848       0.00000000       0.00000000      -0.14949730
2
Properties=species:S:1:pos:R:3:forces:R:3 energy=-1.383011144172413 pbc="F F F"
Te       0.00000000       0.00000000       0.00000000       0.00000000       0.00000000       0.15200670
Te       0.00000000       0.00000000       5.34444444       0.00000000       0.00000000      -0.15200670
2
Properties=species:S:1:pos:R:3:forces:R:3 energy=-1.3739869711761217 pbc="F F F"
Te       0.00000000       0.00000000       0.00000000       0.00000000       0.00000000       0.15005317
Te       0.00000000       0.00000000       5.40404040       0.00000000       0.00000000      -0.15005317
2
Properties=species:S:1:pos:R:3:forces:R:3 energy=-1.3651908364048828 pbc="F F F"
Te       0.00000000       0.00000000       0.00000000       0.00000000       0.00000000       0.14479282
Te       0.00000000       0.00000000       5.46363636       0.00000000       0.00000000      -0.14479282
2
Properties=species:S:1:pos:R:3:forces:R:3 energy=-1.3567560892401702 pbc="F F F"
Te       0.00000000       0.00000000       0.00000000       0.00000000       0.00000000       0.13803528
Te       0.00000000       0.00000000       5.52323232       0.00000000       0.00000000      -0.13803528
2
Properties=species:S:1:pos:R:3:forces:R:3 energy=-1.3488347462366326 pbc="F F F"
Te       0.00000000       0.00000000       0.00000000       0.00000000       0.00000000       0.12670389
Te       0.00000000       0.00000000       5.58282828       0.00000000       0.00000000      -0.12670389
2
Properties=species:S:1:pos:R:3:forces:R:3 energy=-1.3417761803034416 pbc="F F F"
Te       0.00000000       0.00000000       0.00000000       0.00000000       0.00000000       0.10939316
Te       0.00000000       0.00000000       5.64242424       0.00000000       0.00000000      -0.10939316
2
Properties=species:S:1:pos:R:3:forces:R:3 energy=-1.3358416968191942 pbc="F F F"
Te       0.00000000       0.00000000       0.00000000       0.00000000       0.00000000       0.08979927
Te       0.00000000       0.00000000       5.70202020       0.00000000       0.00000000      -0.08979927
2
Properties=species:S:1:pos:R:3:forces:R:3 energy=-1.330997349470583 pbc="F F F"
Te       0.00000000       0.00000000       0.00000000       0.00000000       0.00000000       0.07363970
Te       0.00000000       0.00000000       5.76161616       0.00000000       0.00000000      -0.07363970
2
Properties=species:S:1:pos:R:3:forces:R:3 energy=-1.3270776407414842 pbc="F F F"
Te       0.00000000       0.00000000       0.00000000       0.00000000       0.00000000       0.05683158
Te       0.00000000       0.00000000       5.82121212       0.00000000       0.00000000      -0.05683158
2
Properties=species:S:1:pos:R:3:forces:R:3 energy=-1.3243514519680077 pbc="F F F"
Te       0.00000000       0.00000000       0.00000000       0.00000000       0.00000000       0.03446582
Te       0.00000000       0.00000000       5.88080808       0.00000000       0.00000000      -0.03446582
2
Properties=species:S:1:pos:R:3:forces:R:3 energy=-1.32290643389597 pbc="F F F"
Te       0.00000000       0.00000000       0.00000000       0.00000000       0.00000000       0.01503022
Te       0.00000000       0.00000000       5.94040404       0.00000000       0.00000000      -0.01503022
2
Properties=species:S:1:pos:R:3:forces:R:3 energy=-1.3223168155323803 pbc="F F F"
Te       0.00000000       0.00000000       0.00000000       0.00000000       0.00000000       0.00726031
Te       0.00000000       0.00000000       6.00000000       0.00000000       0.00000000      -0.00726031
