2
Properties=species:S:1:pos:R:3:forces:R:3 energy=-597302.8665883363 pbc="F F F"
Th       0.00000000       0.00000000       0.00000000       0.00000000       0.00000000 -2704657.25000000
Th       0.00000000       0.00000000       0.10000000       0.00000000       0.00000000 2704657.25000000
2
Properties=species:S:1:pos:R:3:forces:R:3 energy=-673359.9290883363 pbc="F F F"
Th       0.00000000       0.00000000       0.00000000       0.00000000       0.00000000 -513423.28125000
Th       0.00000000       0.00000000       0.15959596       0.00000000       0.00000000  513423.28125000
2
Properties=species:S:1:pos:R:3:forces:R:3 energy=-688260.5540883363 pbc="F F F"
Th       0.00000000       0.00000000       0.00000000       0.00000000       0.00000000  -68489.03125000
Th       0.00000000       0.00000000       0.21919192       0.00000000       0.00000000   68489.03125000
2
Properties=species:S:1:pos:R:3:forces:R:3 energy=-685445.4915883363 pbc="F F F"
Th       0.00000000       0.00000000       0.00000000       0.00000000       0.00000000  154906.68750000
Th       0.00000000       0.00000000       0.27878788       0.00000000       0.00000000 -154906.68750000
2
Properties=species:S:1:pos:R:3:forces:R:3 energy=-669469.3665883363 pbc="F F F"
Th       0.00000000       0.00000000       0.00000000       0.00000000       0.00000000  390262.75000000
Th       0.00000000       0.00000000       0.33838384       0.00000000       0.00000000 -390262.75000000
2
Properties=species:S:1:pos:R:3:forces:R:3 energy=-637547.8040883363 pbc="F F F"
Th       0.00000000       0.00000000       0.00000000       0.00000000       0.00000000  693988.06250000
Th       0.00000000       0.00000000       0.39797980       0.00000000       0.00000000 -693988.06250000
2
Properties=species:S:1:pos:R:3:forces:R:3 energy=-585387.4915883236 pbc="F F F"
Th       0.00000000       0.00000000       0.00000000       0.00000000       0.00000000 1064592.00000000
Th       0.00000000       0.00000000       0.45757576       0.00000000       0.00000000 -1064592.00000000
2
Properties=species:S:1:pos:R:3:forces:R:3 energy=-510260.8040883109 pbc="F F F"
Th       0.00000000       0.00000000       0.00000000       0.00000000       0.00000000 1452950.12500000
Th       0.00000000       0.00000000       0.51717172       0.00000000       0.00000000 -1452950.12500000
2
Properties=species:S:1:pos:R:3:forces:R:3 energy=-413735.2728382856 pbc="F F F"
Th       0.00000000       0.00000000       0.00000000       0.00000000       0.00000000 1763906.00000000
Th       0.00000000       0.00000000       0.57676768       0.00000000       0.00000000 -1763906.00000000
2
Properties=species:S:1:pos:R:3:forces:R:3 energy=-303921.0853382476 pbc="F F F"
Th       0.00000000       0.00000000       0.00000000       0.00000000       0.00000000 1879661.87500000
Th       0.00000000       0.00000000       0.63636364       0.00000000       0.00000000 -1879661.87500000
2
Properties=species:S:1:pos:R:3:forces:R:3 energy=-195298.8353381842 pbc="F F F"
Th       0.00000000       0.00000000       0.00000000       0.00000000       0.00000000 1716762.50000000
Th       0.00000000       0.00000000       0.69595960       0.00000000       0.00000000 -1716762.50000000
2
Properties=species:S:1:pos:R:3:forces:R:3 energy=-104516.79627559551 pbc="F F F"
Th       0.00000000       0.00000000       0.00000000       0.00000000       0.00000000 1295711.37500000
Th       0.00000000       0.00000000       0.75555556       0.00000000       0.00000000 -1295711.37500000
2
Properties=species:S:1:pos:R:3:forces:R:3 energy=-43103.249400443456 pbc="F F F"
Th       0.00000000       0.00000000       0.00000000       0.00000000       0.00000000  763811.93750000
Th       0.00000000       0.00000000       0.81515152       0.00000000       0.00000000 -763811.93750000
2
Properties=species:S:1:pos:R:3:forces:R:3 energy=-11683.134165865713 pbc="F F F"
Th       0.00000000       0.00000000       0.00000000       0.00000000       0.00000000  319035.96875000
Th       0.00000000       0.00000000       0.87474747       0.00000000       0.00000000 -319035.96875000
2
Properties=species:S:1:pos:R:3:forces:R:3 energy=-1273.5114849102113 pbc="F F F"
Th       0.00000000       0.00000000       0.00000000       0.00000000       0.00000000   61785.51171875
Th       0.00000000       0.00000000       0.93434343       0.00000000       0.00000000  -61785.51171875
2
Properties=species:S:1:pos:R:3:forces:R:3 energy=312.13158190152 pbc="F F F"
Th       0.00000000       0.00000000       0.00000000       0.00000000       0.00000000    4909.51611328
Th       0.00000000       0.00000000       0.99393939       0.00000000       0.00000000   -4909.51611328
2
Properties=species:S:1:pos:R:3:forces:R:3 energy=246.17702312021356 pbc="F F F"
Th       0.00000000       0.00000000       0.00000000       0.00000000       0.00000000   -2759.85937500
Th       0.00000000       0.00000000       1.05353535       0.00000000       0.00000000    2759.85937500
2
Properties=species:S:1:pos:R:3:forces:R:3 energy=155.02313896745298 pbc="F F F"
Th       0.00000000       0.00000000       0.00000000       0.00000000       0.00000000    -744.25537109
Th       0.00000000       0.00000000       1.11313131       0.00000000       0.00000000     744.25537109
2
Properties=species:S:1:pos:R:3:forces:R:3 energy=130.72121427129125 pbc="F F F"
Th       0.00000000       0.00000000       0.00000000       0.00000000       0.00000000    -264.67013550
Th       0.00000000       0.00000000       1.17272727       0.00000000       0.00000000     264.67013550
2
Properties=species:S:1:pos:R:3:forces:R:3 energy=113.55697754967458 pbc="F F F"
Th       0.00000000       0.00000000       0.00000000       0.00000000       0.00000000    -286.30197144
Th       0.00000000       0.00000000       1.23232323       0.00000000       0.00000000     286.30197144
2
Properties=species:S:1:pos:R:3:forces:R:3 energy=97.38281534056885 pbc="F F F"
Th       0.00000000       0.00000000       0.00000000       0.00000000       0.00000000    -256.93502808
Th       0.00000000       0.00000000       1.29191919       0.00000000       0.00000000     256.93502808
2
Properties=species:S:1:pos:R:3:forces:R:3 energy=82.86285124248676 pbc="F F F"
Th       0.00000000       0.00000000       0.00000000       0.00000000       0.00000000    -230.80659485
Th       0.00000000       0.00000000       1.35151515       0.00000000       0.00000000     230.80659485
2
Properties=species:S:1:pos:R:3:forces:R:3 energy=69.870948602356 pbc="F F F"
Th       0.00000000       0.00000000       0.00000000       0.00000000       0.00000000    -205.14669800
Th       0.00000000       0.00000000       1.41111111       0.00000000       0.00000000     205.14669800
2
Properties=species:S:1:pos:R:3:forces:R:3 energy=58.370078242518176 pbc="F F F"
Th       0.00000000       0.00000000       0.00000000       0.00000000       0.00000000    -181.50927734
Th       0.00000000       0.00000000       1.47070707       0.00000000       0.00000000     181.50927734
2
Properties=species:S:1:pos:R:3:forces:R:3 energy=48.1451867186653 pbc="F F F"
Th       0.00000000       0.00000000       0.00000000       0.00000000       0.00000000    -162.28518677
Th       0.00000000       0.00000000       1.53030303       0.00000000       0.00000000     162.28518677
2
Properties=species:S:1:pos:R:3:forces:R:3 energy=38.98254812648035 pbc="F F F"
Th       0.00000000       0.00000000       0.00000000       0.00000000       0.00000000    -145.28610229
Th       0.00000000       0.00000000       1.58989899       0.00000000       0.00000000     145.28610229
2
Properties=species:S:1:pos:R:3:forces:R:3 energy=30.836611343312555 pbc="F F F"
Th       0.00000000       0.00000000       0.00000000       0.00000000       0.00000000    -128.00729370
Th       0.00000000       0.00000000       1.64949495       0.00000000       0.00000000     128.00729370
2
Properties=species:S:1:pos:R:3:forces:R:3 energy=23.722612447438852 pbc="F F F"
Th       0.00000000       0.00000000       0.00000000       0.00000000       0.00000000    -110.81957245
Th       0.00000000       0.00000000       1.70909091       0.00000000       0.00000000     110.81957245
2
Properties=species:S:1:pos:R:3:forces:R:3 energy=17.62060649694654 pbc="F F F"
Th       0.00000000       0.00000000       0.00000000       0.00000000       0.00000000     -93.98770905
Th       0.00000000       0.00000000       1.76868687       0.00000000       0.00000000      93.98770905
2
Properties=species:S:1:pos:R:3:forces:R:3 energy=12.510572281320183 pbc="F F F"
Th       0.00000000       0.00000000       0.00000000       0.00000000       0.00000000     -77.69824982
Th       0.00000000       0.00000000       1.82828283       0.00000000       0.00000000      77.69824982
2
Properties=species:S:1:pos:R:3:forces:R:3 energy=8.321169518415042 pbc="F F F"
Th       0.00000000       0.00000000       0.00000000       0.00000000       0.00000000     -63.29922104
Th       0.00000000       0.00000000       1.88787879       0.00000000       0.00000000      63.29922104
2
Properties=species:S:1:pos:R:3:forces:R:3 energy=4.91639692542798 pbc="F F F"
Th       0.00000000       0.00000000       0.00000000       0.00000000       0.00000000     -51.35702896
Th       0.00000000       0.00000000       1.94747475       0.00000000       0.00000000      51.35702896
2
Properties=species:S:1:pos:R:3:forces:R:3 energy=2.15752572368223 pbc="F F F"
Th       0.00000000       0.00000000       0.00000000       0.00000000       0.00000000     -41.54246902
Th       0.00000000       0.00000000       2.00707071       0.00000000       0.00000000      41.54246902
2
Properties=species:S:1:pos:R:3:forces:R:3 energy=-0.06788883539793138 pbc="F F F"
Th       0.00000000       0.00000000       0.00000000       0.00000000       0.00000000     -33.37821960
Th       0.00000000       0.00000000       2.06666667       0.00000000       0.00000000      33.37821960
2
Properties=species:S:1:pos:R:3:forces:R:3 energy=-1.8452987583895093 pbc="F F F"
Th       0.00000000       0.00000000       0.00000000       0.00000000       0.00000000     -26.44816971
Th       0.00000000       0.00000000       2.12626263       0.00000000       0.00000000      26.44816971
2
Properties=species:S:1:pos:R:3:forces:R:3 energy=-3.2393678464491975 pbc="F F F"
Th       0.00000000       0.00000000       0.00000000       0.00000000       0.00000000     -20.48382568
Th       0.00000000       0.00000000       2.18585859       0.00000000       0.00000000      20.48382568
2
Properties=species:S:1:pos:R:3:forces:R:3 energy=-4.303514825093922 pbc="F F F"
Th       0.00000000       0.00000000       0.00000000       0.00000000       0.00000000     -15.36171627
Th       0.00000000       0.00000000       2.24545455       0.00000000       0.00000000      15.36171627
2
Properties=species:S:1:pos:R:3:forces:R:3 energy=-5.085566725548496 pbc="F F F"
Th       0.00000000       0.00000000       0.00000000       0.00000000       0.00000000     -11.00531769
Th       0.00000000       0.00000000       2.30505051       0.00000000       0.00000000      11.00531769
2
Properties=species:S:1:pos:R:3:forces:R:3 energy=-5.6292903918310575 pbc="F F F"
Th       0.00000000       0.00000000       0.00000000       0.00000000       0.00000000      -7.35588551
Th       0.00000000       0.00000000       2.36464646       0.00000000       0.00000000       7.35588551
2
Properties=species:S:1:pos:R:3:forces:R:3 energy=-5.975537699055206 pbc="F F F"
Th       0.00000000       0.00000000       0.00000000       0.00000000       0.00000000      -4.37160110
Th       0.00000000       0.00000000       2.42424242       0.00000000       0.00000000       4.37160110
2
Properties=species:S:1:pos:R:3:forces:R:3 energy=-6.162808672771262 pbc="F F F"
Th       0.00000000       0.00000000       0.00000000       0.00000000       0.00000000      -2.01418281
Th       0.00000000       0.00000000       2.48383838       0.00000000       0.00000000       2.01418281
2
Properties=species:S:1:pos:R:3:forces:R:3 energy=-6.227255831185847 pbc="F F F"
Th       0.00000000       0.00000000       0.00000000       0.00000000       0.00000000      -0.24261722
Th       0.00000000       0.00000000       2.54343434       0.00000000       0.00000000       0.24261722
2
Properties=species:S:1:pos:R:3:forces:R:3 energy=-6.202363725248993 pbc="F F F"
Th       0.00000000       0.00000000       0.00000000       0.00000000       0.00000000       0.99451327
Th       0.00000000       0.00000000       2.60303030       0.00000000       0.00000000      -0.99451327
2
Properties=species:S:1:pos:R:3:forces:R:3 energy=-6.117782506266159 pbc="F F F"
Th       0.00000000       0.00000000       0.00000000       0.00000000       0.00000000       1.77632070
Th       0.00000000       0.00000000       2.66262626       0.00000000       0.00000000      -1.77632070
2
Properties=species:S:1:pos:R:3:forces:R:3 energy=-5.997564231962919 pbc="F F F"
Th       0.00000000       0.00000000       0.00000000       0.00000000       0.00000000       2.20959926
Th       0.00000000       0.00000000       2.72222222       0.00000000       0.00000000      -2.20959926
2
Properties=species:S:1:pos:R:3:forces:R:3 energy=-5.859148157012312 pbc="F F F"
Th       0.00000000       0.00000000       0.00000000       0.00000000       0.00000000       2.40393233
Th       0.00000000       0.00000000       2.78181818       0.00000000       0.00000000      -2.40393233
2
Properties=species:S:1:pos:R:3:forces:R:3 energy=-5.7140185529012495 pbc="F F F"
Th       0.00000000       0.00000000       0.00000000       0.00000000       0.00000000       2.44708133
Th       0.00000000       0.00000000       2.84141414       0.00000000       0.00000000      -2.44708133
2
Properties=species:S:1:pos:R:3:forces:R:3 energy=-5.569287119718502 pbc="F F F"
Th       0.00000000       0.00000000       0.00000000       0.00000000       0.00000000       2.39834023
Th       0.00000000       0.00000000       2.90101010       0.00000000       0.00000000      -2.39834023
2
Properties=species:S:1:pos:R:3:forces:R:3 energy=-5.4292168056568455 pbc="F F F"
Th       0.00000000       0.00000000       0.00000000       0.00000000       0.00000000       2.29584217
Th       0.00000000       0.00000000       2.96060606       0.00000000       0.00000000      -2.29584217
2
Properties=species:S:1:pos:R:3:forces:R:3 energy=-5.296170236120731 pbc="F F F"
Th       0.00000000       0.00000000       0.00000000       0.00000000       0.00000000       2.16647768
Th       0.00000000       0.00000000       3.02020202       0.00000000       0.00000000      -2.16647768
2
Properties=species:S:1:pos:R:3:forces:R:3 energy=-5.171095636133072 pbc="F F F"
Th       0.00000000       0.00000000       0.00000000       0.00000000       0.00000000       2.03163862
Th       0.00000000       0.00000000       3.07979798       0.00000000       0.00000000      -2.03163862
2
Properties=species:S:1:pos:R:3:forces:R:3 energy=-5.053773908010921 pbc="F F F"
Th       0.00000000       0.00000000       0.00000000       0.00000000       0.00000000       1.90892267
Th       0.00000000       0.00000000       3.13939394       0.00000000       0.00000000      -1.90892267
2
Properties=species:S:1:pos:R:3:forces:R:3 energy=-4.943054901841459 pbc="F F F"
Th       0.00000000       0.00000000       0.00000000       0.00000000       0.00000000       1.81185925
Th       0.00000000       0.00000000       3.19898990       0.00000000       0.00000000      -1.81185925
2
Properties=species:S:1:pos:R:3:forces:R:3 energy=-4.837139078858839 pbc="F F F"
Th       0.00000000       0.00000000       0.00000000       0.00000000       0.00000000       1.74856901
Th       0.00000000       0.00000000       3.25858586       0.00000000       0.00000000      -1.74856901
2
Properties=species:S:1:pos:R:3:forces:R:3 energy=-4.733937632868414 pbc="F F F"
Th       0.00000000       0.00000000       0.00000000       0.00000000       0.00000000       1.72040725
Th       0.00000000       0.00000000       3.31818182       0.00000000       0.00000000      -1.72040725
2
Properties=species:S:1:pos:R:3:forces:R:3 energy=-4.631487267218453 pbc="F F F"
Th       0.00000000       0.00000000       0.00000000       0.00000000       0.00000000       1.72191918
Th       0.00000000       0.00000000       3.37777778       0.00000000       0.00000000      -1.72191918
2
Properties=species:S:1:pos:R:3:forces:R:3 energy=-4.528309801373351 pbc="F F F"
Th       0.00000000       0.00000000       0.00000000       0.00000000       0.00000000       1.74293268
Th       0.00000000       0.00000000       3.43737374       0.00000000       0.00000000      -1.74293268
2
Properties=species:S:1:pos:R:3:forces:R:3 energy=-4.423588427935931 pbc="F F F"
Th       0.00000000       0.00000000       0.00000000       0.00000000       0.00000000       1.77182949
Th       0.00000000       0.00000000       3.49696970       0.00000000       0.00000000      -1.77182949
2
Properties=species:S:1:pos:R:3:forces:R:3 energy=-4.317164750254185 pbc="F F F"
Th       0.00000000       0.00000000       0.00000000       0.00000000       0.00000000       1.79865575
Th       0.00000000       0.00000000       3.55656566       0.00000000       0.00000000      -1.79865575
2
Properties=species:S:1:pos:R:3:forces:R:3 energy=-4.209376092251308 pbc="F F F"
Th       0.00000000       0.00000000       0.00000000       0.00000000       0.00000000       1.81686795
Th       0.00000000       0.00000000       3.61616162       0.00000000       0.00000000      -1.81686795
2
Properties=species:S:1:pos:R:3:forces:R:3 energy=-4.100842780703887 pbc="F F F"
Th       0.00000000       0.00000000       0.00000000       0.00000000       0.00000000       1.82347357
Th       0.00000000       0.00000000       3.67575758       0.00000000       0.00000000      -1.82347357
2
Properties=species:S:1:pos:R:3:forces:R:3 energy=-3.9922757161059925 pbc="F F F"
Th       0.00000000       0.00000000       0.00000000       0.00000000       0.00000000       1.81798875
Th       0.00000000       0.00000000       3.73535354       0.00000000       0.00000000      -1.81798875
2
Properties=species:S:1:pos:R:3:forces:R:3 energy=-3.884379473355751 pbc="F F F"
Th       0.00000000       0.00000000       0.00000000       0.00000000       0.00000000       1.80100799
Th       0.00000000       0.00000000       3.79494949       0.00000000       0.00000000      -1.80100799
2
Properties=species:S:1:pos:R:3:forces:R:3 energy=-3.7778248606120775 pbc="F F F"
Th       0.00000000       0.00000000       0.00000000       0.00000000       0.00000000       1.77311218
Th       0.00000000       0.00000000       3.85454545       0.00000000       0.00000000      -1.77311218
2
Properties=species:S:1:pos:R:3:forces:R:3 energy=-3.673250913006423 pbc="F F F"
Th       0.00000000       0.00000000       0.00000000       0.00000000       0.00000000       1.73463058
Th       0.00000000       0.00000000       3.91414141       0.00000000       0.00000000      -1.73463058
2
Properties=species:S:1:pos:R:3:forces:R:3 energy=-3.5712754464166983 pbc="F F F"
Th       0.00000000       0.00000000       0.00000000       0.00000000       0.00000000       1.68590963
Th       0.00000000       0.00000000       3.97373737       0.00000000       0.00000000      -1.68590963
2
Properties=species:S:1:pos:R:3:forces:R:3 energy=-3.472488721535948 pbc="F F F"
Th       0.00000000       0.00000000       0.00000000       0.00000000       0.00000000       1.62788117
Th       0.00000000       0.00000000       4.03333333       0.00000000       0.00000000      -1.62788117
2
Properties=species:S:1:pos:R:3:forces:R:3 energy=-3.377394716874159 pbc="F F F"
Th       0.00000000       0.00000000       0.00000000       0.00000000       0.00000000       1.56232119
Th       0.00000000       0.00000000       4.09292929       0.00000000       0.00000000      -1.56232119
2
Properties=species:S:1:pos:R:3:forces:R:3 energy=-3.286371156800346 pbc="F F F"
Th       0.00000000       0.00000000       0.00000000       0.00000000       0.00000000       1.49181676
Th       0.00000000       0.00000000       4.15252525       0.00000000       0.00000000      -1.49181676
2
Properties=species:S:1:pos:R:3:forces:R:3 energy=-3.199622161279978 pbc="F F F"
Th       0.00000000       0.00000000       0.00000000       0.00000000       0.00000000       1.41935277
Th       0.00000000       0.00000000       4.21212121       0.00000000       0.00000000      -1.41935277
2
Properties=species:S:1:pos:R:3:forces:R:3 energy=-3.117176043086965 pbc="F F F"
Th       0.00000000       0.00000000       0.00000000       0.00000000       0.00000000       1.34782004
Th       0.00000000       0.00000000       4.27171717       0.00000000       0.00000000      -1.34782004
2
Properties=species:S:1:pos:R:3:forces:R:3 energy=-3.038906885853019 pbc="F F F"
Th       0.00000000       0.00000000       0.00000000       0.00000000       0.00000000       1.27959716
Th       0.00000000       0.00000000       4.33131313       0.00000000       0.00000000      -1.27959716
2
Properties=species:S:1:pos:R:3:forces:R:3 energy=-2.9645608081252224 pbc="F F F"
Th       0.00000000       0.00000000       0.00000000       0.00000000       0.00000000       1.21628988
Th       0.00000000       0.00000000       4.39090909       0.00000000       0.00000000      -1.21628988
2
Properties=species:S:1:pos:R:3:forces:R:3 energy=-2.8938193763724245 pbc="F F F"
Th       0.00000000       0.00000000       0.00000000       0.00000000       0.00000000       1.15867388
Th       0.00000000       0.00000000       4.45050505       0.00000000       0.00000000      -1.15867388
2
Properties=species:S:1:pos:R:3:forces:R:3 energy=-2.826343387640678 pbc="F F F"
Th       0.00000000       0.00000000       0.00000000       0.00000000       0.00000000       1.10673106
Th       0.00000000       0.00000000       4.51010101       0.00000000       0.00000000      -1.10673106
2
Properties=species:S:1:pos:R:3:forces:R:3 energy=-2.7618068366971666 pbc="F F F"
Th       0.00000000       0.00000000       0.00000000       0.00000000       0.00000000       1.05977285
Th       0.00000000       0.00000000       4.56969697       0.00000000       0.00000000      -1.05977285
2
Properties=species:S:1:pos:R:3:forces:R:3 energy=-2.6999496342146685 pbc="F F F"
Th       0.00000000       0.00000000       0.00000000       0.00000000       0.00000000       1.01663125
Th       0.00000000       0.00000000       4.62929293       0.00000000       0.00000000      -1.01663125
2
Properties=species:S:1:pos:R:3:forces:R:3 energy=-2.640587242549123 pbc="F F F"
Th       0.00000000       0.00000000       0.00000000       0.00000000       0.00000000       0.97583330
Th       0.00000000       0.00000000       4.68888889       0.00000000       0.00000000      -0.97583330
2
Properties=species:S:1:pos:R:3:forces:R:3 energy=-2.5836208350397722 pbc="F F F"
Th       0.00000000       0.00000000       0.00000000       0.00000000       0.00000000       0.93589425
Th       0.00000000       0.00000000       4.74848485       0.00000000       0.00000000      -0.93589425
2
Properties=species:S:1:pos:R:3:forces:R:3 energy=-2.5290433998575534 pbc="F F F"
Th       0.00000000       0.00000000       0.00000000       0.00000000       0.00000000       0.89562362
Th       0.00000000       0.00000000       4.80808081       0.00000000       0.00000000      -0.89562362
2
Properties=species:S:1:pos:R:3:forces:R:3 energy=-2.4768874589800944 pbc="F F F"
Th       0.00000000       0.00000000       0.00000000       0.00000000       0.00000000       0.85451335
Th       0.00000000       0.00000000       4.86767677       0.00000000       0.00000000      -0.85451335
2
Properties=species:S:1:pos:R:3:forces:R:3 energy=-2.427197812445961 pbc="F F F"
Th       0.00000000       0.00000000       0.00000000       0.00000000       0.00000000       0.81306630
Th       0.00000000       0.00000000       4.92727273       0.00000000       0.00000000      -0.81306630
2
Properties=species:S:1:pos:R:3:forces:R:3 energy=-2.3799514297120807 pbc="F F F"
Th       0.00000000       0.00000000       0.00000000       0.00000000       0.00000000       0.77289939
Th       0.00000000       0.00000000       4.98686869       0.00000000       0.00000000      -0.77289939
2
Properties=species:S:1:pos:R:3:forces:R:3 energy=-2.3350049912306976 pbc="F F F"
Th       0.00000000       0.00000000       0.00000000       0.00000000       0.00000000       0.73648804
Th       0.00000000       0.00000000       5.04646465       0.00000000       0.00000000      -0.73648804
2
Properties=species:S:1:pos:R:3:forces:R:3 energy=-2.292047411473907 pbc="F F F"
Th       0.00000000       0.00000000       0.00000000       0.00000000       0.00000000       0.70628560
Th       0.00000000       0.00000000       5.10606061       0.00000000       0.00000000      -0.70628560
2
Properties=species:S:1:pos:R:3:forces:R:3 energy=-2.2506704108330706 pbc="F F F"
Th       0.00000000       0.00000000       0.00000000       0.00000000       0.00000000       0.68318564
Th       0.00000000       0.00000000       5.16565657       0.00000000       0.00000000      -0.68318564
2
Properties=species:S:1:pos:R:3:forces:R:3 energy=-2.210522922159054 pbc="F F F"
Th       0.00000000       0.00000000       0.00000000       0.00000000       0.00000000       0.66442645
Th       0.00000000       0.00000000       5.22525253       0.00000000       0.00000000      -0.66442645
2
Properties=species:S:1:pos:R:3:forces:R:3 energy=-2.171550367980981 pbc="F F F"
Th       0.00000000       0.00000000       0.00000000       0.00000000       0.00000000       0.64200228
Th       0.00000000       0.00000000       5.28484848       0.00000000       0.00000000      -0.64200228
2
Properties=species:S:1:pos:R:3:forces:R:3 energy=-2.1342710193176337 pbc="F F F"
Th       0.00000000       0.00000000       0.00000000       0.00000000       0.00000000       0.60642654
Th       0.00000000       0.00000000       5.34444444       0.00000000       0.00000000      -0.60642654
2
Properties=species:S:1:pos:R:3:forces:R:3 energy=-2.0994508410848054 pbc="F F F"
Th       0.00000000       0.00000000       0.00000000       0.00000000       0.00000000       0.56269658
Th       0.00000000       0.00000000       5.40404040       0.00000000       0.00000000      -0.56269658
2
Properties=species:S:1:pos:R:3:forces:R:3 energy=-2.066784905472296 pbc="F F F"
Th       0.00000000       0.00000000       0.00000000       0.00000000       0.00000000       0.53852016
Th       0.00000000       0.00000000       5.46363636       0.00000000       0.00000000      -0.53852016
2
Properties=species:S:1:pos:R:3:forces:R:3 energy=-2.0348946362910065 pbc="F F F"
Th       0.00000000       0.00000000       0.00000000       0.00000000       0.00000000       0.53104693
Th       0.00000000       0.00000000       5.52323232       0.00000000       0.00000000      -0.53104693
2
Properties=species:S:1:pos:R:3:forces:R:3 energy=-2.0041448246873843 pbc="F F F"
Th       0.00000000       0.00000000       0.00000000       0.00000000       0.00000000       0.49361244
Th       0.00000000       0.00000000       5.58282828       0.00000000       0.00000000      -0.49361244
2
Properties=species:S:1:pos:R:3:forces:R:3 energy=-1.9766243339095422 pbc="F F F"
Th       0.00000000       0.00000000       0.00000000       0.00000000       0.00000000       0.42955300
Th       0.00000000       0.00000000       5.64242424       0.00000000       0.00000000      -0.42955300
2
Properties=species:S:1:pos:R:3:forces:R:3 energy=-1.9523135776690017 pbc="F F F"
Th       0.00000000       0.00000000       0.00000000       0.00000000       0.00000000       0.39652753
Th       0.00000000       0.00000000       5.70202020       0.00000000       0.00000000      -0.39652753
2
Properties=species:S:1:pos:R:3:forces:R:3 energy=-1.9279658463283058 pbc="F F F"
Th       0.00000000       0.00000000       0.00000000       0.00000000       0.00000000       0.42796516
Th       0.00000000       0.00000000       5.76161616       0.00000000       0.00000000      -0.42796516
2
Properties=species:S:1:pos:R:3:forces:R:3 energy=-1.9021114606185423 pbc="F F F"
Th       0.00000000       0.00000000       0.00000000       0.00000000       0.00000000       0.41883799
Th       0.00000000       0.00000000       5.82121212       0.00000000       0.00000000      -0.41883799
2
Properties=species:S:1:pos:R:3:forces:R:3 energy=-1.8808937447726775 pbc="F F F"
Th       0.00000000       0.00000000       0.00000000       0.00000000       0.00000000       0.27772221
Th       0.00000000       0.00000000       5.88080808       0.00000000       0.00000000      -0.27772221
2
Properties=species:S:1:pos:R:3:forces:R:3 energy=-1.8695728779210117 pbc="F F F"
Th       0.00000000       0.00000000       0.00000000       0.00000000       0.00000000       0.10646251
Th       0.00000000       0.00000000       5.94040404       0.00000000       0.00000000      -0.10646251
2
Properties=species:S:1:pos:R:3:forces:R:3 energy=-1.8661054021332155 pbc="F F F"
Th       0.00000000       0.00000000       0.00000000       0.00000000       0.00000000       0.03418691
Th       0.00000000       0.00000000       6.00000000       0.00000000       0.00000000      -0.03418691
