2
Properties=species:S:1:pos:R:3:forces:R:3 energy=14537.726690800708 pbc="F F F"
Ti       0.00000000       0.00000000       0.00000000       0.00000000       0.00000000 -247631.35937500
Ti       0.00000000       0.00000000       0.10000000       0.00000000       0.00000000  247631.35937500
2
Properties=species:S:1:pos:R:3:forces:R:3 energy=6925.776495488207 pbc="F F F"
Ti       0.00000000       0.00000000       0.00000000       0.00000000       0.00000000  -60345.25781250
Ti       0.00000000       0.00000000       0.15959596       0.00000000       0.00000000   60345.25781250
2
Properties=species:S:1:pos:R:3:forces:R:3 energy=4758.046026738207 pbc="F F F"
Ti       0.00000000       0.00000000       0.00000000       0.00000000       0.00000000  -20931.12500000
Ti       0.00000000       0.00000000       0.21919192       0.00000000       0.00000000   20931.12500000
2
Properties=species:S:1:pos:R:3:forces:R:3 energy=3911.838751347582 pbc="F F F"
Ti       0.00000000       0.00000000       0.00000000       0.00000000       0.00000000   -9632.07226562
Ti       0.00000000       0.00000000       0.27878788       0.00000000       0.00000000    9632.07226562
2
Properties=species:S:1:pos:R:3:forces:R:3 energy=3457.8956361163746 pbc="F F F"
Ti       0.00000000       0.00000000       0.00000000       0.00000000       0.00000000   -6356.67187500
Ti       0.00000000       0.00000000       0.33838384       0.00000000       0.00000000    6356.67187500
2
Properties=species:S:1:pos:R:3:forces:R:3 energy=3093.6192689320424 pbc="F F F"
Ti       0.00000000       0.00000000       0.00000000       0.00000000       0.00000000   -6215.76806641
Ti       0.00000000       0.00000000       0.39797980       0.00000000       0.00000000    6215.76806641
2
Properties=species:S:1:pos:R:3:forces:R:3 energy=2687.268927144671 pbc="F F F"
Ti       0.00000000       0.00000000       0.00000000       0.00000000       0.00000000   -7589.03320312
Ti       0.00000000       0.00000000       0.45757576       0.00000000       0.00000000    7589.03320312
2
Properties=species:S:1:pos:R:3:forces:R:3 energy=2178.79627091051 pbc="F F F"
Ti       0.00000000       0.00000000       0.00000000       0.00000000       0.00000000   -9411.50000000
Ti       0.00000000       0.00000000       0.51717172       0.00000000       0.00000000    9411.50000000
2
Properties=species:S:1:pos:R:3:forces:R:3 energy=1537.4401918406259 pbc="F F F"
Ti       0.00000000       0.00000000       0.00000000       0.00000000       0.00000000  -10884.12597656
Ti       0.00000000       0.00000000       0.57676768       0.00000000       0.00000000   10884.12597656
2
Properties=species:S:1:pos:R:3:forces:R:3 energy=893.1669374999475 pbc="F F F"
Ti       0.00000000       0.00000000       0.00000000       0.00000000       0.00000000  -10541.85742188
Ti       0.00000000       0.00000000       0.63636364       0.00000000       0.00000000   10541.85742188
2
Properties=species:S:1:pos:R:3:forces:R:3 energy=478.00842928469746 pbc="F F F"
Ti       0.00000000       0.00000000       0.00000000       0.00000000       0.00000000   -3718.12597656
Ti       0.00000000       0.00000000       0.69595960       0.00000000       0.00000000    3718.12597656
2
Properties=species:S:1:pos:R:3:forces:R:3 energy=291.69205368215626 pbc="F F F"
Ti       0.00000000       0.00000000       0.00000000       0.00000000       0.00000000   -2085.48974609
Ti       0.00000000       0.00000000       0.75555556       0.00000000       0.00000000    2085.48974609
2
Properties=species:S:1:pos:R:3:forces:R:3 energy=191.74587162758468 pbc="F F F"
Ti       0.00000000       0.00000000       0.00000000       0.00000000       0.00000000   -1318.75585938
Ti       0.00000000       0.00000000       0.81515152       0.00000000       0.00000000    1318.75585938
2
Properties=species:S:1:pos:R:3:forces:R:3 energy=130.89252413120053 pbc="F F F"
Ti       0.00000000       0.00000000       0.00000000       0.00000000       0.00000000    -727.48968506
Ti       0.00000000       0.00000000       0.87474747       0.00000000       0.00000000     727.48968506
2
Properties=species:S:1:pos:R:3:forces:R:3 energy=98.57289104962724 pbc="F F F"
Ti       0.00000000       0.00000000       0.00000000       0.00000000       0.00000000    -435.75961304
Ti       0.00000000       0.00000000       0.93434343       0.00000000       0.00000000     435.75961304
2
Properties=species:S:1:pos:R:3:forces:R:3 energy=75.90802801757033 pbc="F F F"
Ti       0.00000000       0.00000000       0.00000000       0.00000000       0.00000000    -334.85363770
Ti       0.00000000       0.00000000       0.99393939       0.00000000       0.00000000     334.85363770
2
Properties=species:S:1:pos:R:3:forces:R:3 energy=57.529397179715126 pbc="F F F"
Ti       0.00000000       0.00000000       0.00000000       0.00000000       0.00000000    -287.65936279
Ti       0.00000000       0.00000000       1.05353535       0.00000000       0.00000000     287.65936279
2
Properties=species:S:1:pos:R:3:forces:R:3 energy=41.531721334549516 pbc="F F F"
Ti       0.00000000       0.00000000       0.00000000       0.00000000       0.00000000    -246.96835327
Ti       0.00000000       0.00000000       1.11313131       0.00000000       0.00000000     246.96835327
2
Properties=species:S:1:pos:R:3:forces:R:3 energy=28.330041521614213 pbc="F F F"
Ti       0.00000000       0.00000000       0.00000000       0.00000000       0.00000000    -195.52626038
Ti       0.00000000       0.00000000       1.17272727       0.00000000       0.00000000     195.52626038
2
Properties=species:S:1:pos:R:3:forces:R:3 energy=18.11083548440541 pbc="F F F"
Ti       0.00000000       0.00000000       0.00000000       0.00000000       0.00000000    -149.21464539
Ti       0.00000000       0.00000000       1.23232323       0.00000000       0.00000000     149.21464539
2
Properties=species:S:1:pos:R:3:forces:R:3 energy=10.346631766095902 pbc="F F F"
Ti       0.00000000       0.00000000       0.00000000       0.00000000       0.00000000    -112.63065338
Ti       0.00000000       0.00000000       1.29191919       0.00000000       0.00000000     112.63065338
2
Properties=species:S:1:pos:R:3:forces:R:3 energy=4.567980960616207 pbc="F F F"
Ti       0.00000000       0.00000000       0.00000000       0.00000000       0.00000000     -82.16009521
Ti       0.00000000       0.00000000       1.35151515       0.00000000       0.00000000      82.16009521
2
Properties=species:S:1:pos:R:3:forces:R:3 energy=0.4468411516734495 pbc="F F F"
Ti       0.00000000       0.00000000       0.00000000       0.00000000       0.00000000     -57.11425781
Ti       0.00000000       0.00000000       1.41111111       0.00000000       0.00000000      57.11425781
2
Properties=species:S:1:pos:R:3:forces:R:3 energy=-2.3654315173466607 pbc="F F F"
Ti       0.00000000       0.00000000       0.00000000       0.00000000       0.00000000     -38.37773132
Ti       0.00000000       0.00000000       1.47070707       0.00000000       0.00000000      38.37773132
2
Properties=species:S:1:pos:R:3:forces:R:3 energy=-4.255074738275501 pbc="F F F"
Ti       0.00000000       0.00000000       0.00000000       0.00000000       0.00000000     -25.98740959
Ti       0.00000000       0.00000000       1.53030303       0.00000000       0.00000000      25.98740959
2
Properties=species:S:1:pos:R:3:forces:R:3 energy=-5.554490311934246 pbc="F F F"
Ti       0.00000000       0.00000000       0.00000000       0.00000000       0.00000000     -18.20438576
Ti       0.00000000       0.00000000       1.58989899       0.00000000       0.00000000      18.20438576
2
Properties=species:S:1:pos:R:3:forces:R:3 energy=-6.475676263008522 pbc="F F F"
Ti       0.00000000       0.00000000       0.00000000       0.00000000       0.00000000     -13.00428391
Ti       0.00000000       0.00000000       1.64949495       0.00000000       0.00000000      13.00428391
2
Properties=species:S:1:pos:R:3:forces:R:3 energy=-7.129096468987938 pbc="F F F"
Ti       0.00000000       0.00000000       0.00000000       0.00000000       0.00000000      -9.07072258
Ti       0.00000000       0.00000000       1.70909091       0.00000000       0.00000000       9.07072258
2
Properties=species:S:1:pos:R:3:forces:R:3 energy=-7.571181508936223 pbc="F F F"
Ti       0.00000000       0.00000000       0.00000000       0.00000000       0.00000000      -5.87492037
Ti       0.00000000       0.00000000       1.76868687       0.00000000       0.00000000       5.87492037
2
Properties=species:S:1:pos:R:3:forces:R:3 energy=-7.842731862428185 pbc="F F F"
Ti       0.00000000       0.00000000       0.00000000       0.00000000       0.00000000      -3.35664845
Ti       0.00000000       0.00000000       1.82828283       0.00000000       0.00000000       3.35664845
2
Properties=species:S:1:pos:R:3:forces:R:3 energy=-7.985821167418857 pbc="F F F"
Ti       0.00000000       0.00000000       0.00000000       0.00000000       0.00000000      -1.56502390
Ti       0.00000000       0.00000000       1.88787879       0.00000000       0.00000000       1.56502390
2
Properties=species:S:1:pos:R:3:forces:R:3 energy=-8.04189416267292 pbc="F F F"
Ti       0.00000000       0.00000000       0.00000000       0.00000000       0.00000000      -0.40256128
Ti       0.00000000       0.00000000       1.94747475       0.00000000       0.00000000       0.40256128
2
Properties=species:S:1:pos:R:3:forces:R:3 energy=-8.04126677789058 pbc="F F F"
Ti       0.00000000       0.00000000       0.00000000       0.00000000       0.00000000       0.38129094
Ti       0.00000000       0.00000000       2.00707071       0.00000000       0.00000000      -0.38129094
2
Properties=species:S:1:pos:R:3:forces:R:3 energy=-8.000081328719798 pbc="F F F"
Ti       0.00000000       0.00000000       0.00000000       0.00000000       0.00000000       0.97609776
Ti       0.00000000       0.00000000       2.06666667       0.00000000       0.00000000      -0.97609776
2
Properties=species:S:1:pos:R:3:forces:R:3 energy=-7.927964703586879 pbc="F F F"
Ti       0.00000000       0.00000000       0.00000000       0.00000000       0.00000000       1.41619051
Ti       0.00000000       0.00000000       2.12626263       0.00000000       0.00000000      -1.41619051
2
Properties=species:S:1:pos:R:3:forces:R:3 energy=-7.8348420812635 pbc="F F F"
Ti       0.00000000       0.00000000       0.00000000       0.00000000       0.00000000       1.67857111
Ti       0.00000000       0.00000000       2.18585859       0.00000000       0.00000000      -1.67857111
2
Properties=species:S:1:pos:R:3:forces:R:3 energy=-7.731278551860728 pbc="F F F"
Ti       0.00000000       0.00000000       0.00000000       0.00000000       0.00000000       1.77188182
Ti       0.00000000       0.00000000       2.24545455       0.00000000       0.00000000      -1.77188182
2
Properties=species:S:1:pos:R:3:forces:R:3 energy=-7.626094390364849 pbc="F F F"
Ti       0.00000000       0.00000000       0.00000000       0.00000000       0.00000000       1.74229050
Ti       0.00000000       0.00000000       2.30505051       0.00000000       0.00000000      -1.74229050
2
Properties=species:S:1:pos:R:3:forces:R:3 energy=-7.52492410296735 pbc="F F F"
Ti       0.00000000       0.00000000       0.00000000       0.00000000       0.00000000       1.64624798
Ti       0.00000000       0.00000000       2.36464646       0.00000000       0.00000000      -1.64624798
2
Properties=species:S:1:pos:R:3:forces:R:3 energy=-7.4302489712499655 pbc="F F F"
Ti       0.00000000       0.00000000       0.00000000       0.00000000       0.00000000       1.53085017
Ti       0.00000000       0.00000000       2.42424242       0.00000000       0.00000000      -1.53085017
2
Properties=species:S:1:pos:R:3:forces:R:3 energy=-7.342214282631382 pbc="F F F"
Ti       0.00000000       0.00000000       0.00000000       0.00000000       0.00000000       1.42726612
Ti       0.00000000       0.00000000       2.48383838       0.00000000       0.00000000      -1.42726612
2
Properties=species:S:1:pos:R:3:forces:R:3 energy=-7.259576704401094 pbc="F F F"
Ti       0.00000000       0.00000000       0.00000000       0.00000000       0.00000000       1.35115111
Ti       0.00000000       0.00000000       2.54343434       0.00000000       0.00000000      -1.35115111
2
Properties=species:S:1:pos:R:3:forces:R:3 energy=-7.180553379703306 pbc="F F F"
Ti       0.00000000       0.00000000       0.00000000       0.00000000       0.00000000       1.30566645
Ti       0.00000000       0.00000000       2.60303030       0.00000000       0.00000000      -1.30566645
2
Properties=species:S:1:pos:R:3:forces:R:3 energy=-7.103459385005423 pbc="F F F"
Ti       0.00000000       0.00000000       0.00000000       0.00000000       0.00000000       1.28474486
Ti       0.00000000       0.00000000       2.66262626       0.00000000       0.00000000      -1.28474486
2
Properties=species:S:1:pos:R:3:forces:R:3 energy=-7.027178334275046 pbc="F F F"
Ti       0.00000000       0.00000000       0.00000000       0.00000000       0.00000000       1.27595210
Ti       0.00000000       0.00000000       2.72222222       0.00000000       0.00000000      -1.27595210
2
Properties=species:S:1:pos:R:3:forces:R:3 energy=-6.951443528413517 pbc="F F F"
Ti       0.00000000       0.00000000       0.00000000       0.00000000       0.00000000       1.26393080
Ti       0.00000000       0.00000000       2.78181818       0.00000000       0.00000000      -1.26393080
2
Properties=species:S:1:pos:R:3:forces:R:3 energy=-6.876807609365625 pbc="F F F"
Ti       0.00000000       0.00000000       0.00000000       0.00000000       0.00000000       1.23863256
Ti       0.00000000       0.00000000       2.84141414       0.00000000       0.00000000      -1.23863256
2
Properties=species:S:1:pos:R:3:forces:R:3 energy=-6.803834140168272 pbc="F F F"
Ti       0.00000000       0.00000000       0.00000000       0.00000000       0.00000000       1.21339464
Ti       0.00000000       0.00000000       2.90101010       0.00000000       0.00000000      -1.21339464
2
Properties=species:S:1:pos:R:3:forces:R:3 energy=-6.731293423380649 pbc="F F F"
Ti       0.00000000       0.00000000       0.00000000       0.00000000       0.00000000       1.23204982
Ti       0.00000000       0.00000000       2.96060606       0.00000000       0.00000000      -1.23204982
2
Properties=species:S:1:pos:R:3:forces:R:3 energy=-6.655705399154744 pbc="F F F"
Ti       0.00000000       0.00000000       0.00000000       0.00000000       0.00000000       1.31174779
Ti       0.00000000       0.00000000       3.02020202       0.00000000       0.00000000      -1.31174779
2
Properties=species:S:1:pos:R:3:forces:R:3 energy=-6.574852797203824 pbc="F F F"
Ti       0.00000000       0.00000000       0.00000000       0.00000000       0.00000000       1.39649773
Ti       0.00000000       0.00000000       3.07979798       0.00000000       0.00000000      -1.39649773
2
Properties=species:S:1:pos:R:3:forces:R:3 energy=-6.490225150459812 pbc="F F F"
Ti       0.00000000       0.00000000       0.00000000       0.00000000       0.00000000       1.43452501
Ti       0.00000000       0.00000000       3.13939394       0.00000000       0.00000000      -1.43452501
2
Properties=species:S:1:pos:R:3:forces:R:3 energy=-6.404797457979331 pbc="F F F"
Ti       0.00000000       0.00000000       0.00000000       0.00000000       0.00000000       1.42629063
Ti       0.00000000       0.00000000       3.19898990       0.00000000       0.00000000      -1.42629063
2
Properties=species:S:1:pos:R:3:forces:R:3 energy=-6.320747877699779 pbc="F F F"
Ti       0.00000000       0.00000000       0.00000000       0.00000000       0.00000000       1.39137077
Ti       0.00000000       0.00000000       3.25858586       0.00000000       0.00000000      -1.39137077
2
Properties=species:S:1:pos:R:3:forces:R:3 energy=-6.239196069706464 pbc="F F F"
Ti       0.00000000       0.00000000       0.00000000       0.00000000       0.00000000       1.34414697
Ti       0.00000000       0.00000000       3.31818182       0.00000000       0.00000000      -1.34414697
2
Properties=species:S:1:pos:R:3:forces:R:3 energy=-6.160636559991697 pbc="F F F"
Ti       0.00000000       0.00000000       0.00000000       0.00000000       0.00000000       1.29172933
Ti       0.00000000       0.00000000       3.37777778       0.00000000       0.00000000      -1.29172933
2
Properties=species:S:1:pos:R:3:forces:R:3 energy=-6.085277823680149 pbc="F F F"
Ti       0.00000000       0.00000000       0.00000000       0.00000000       0.00000000       1.23699915
Ti       0.00000000       0.00000000       3.43737374       0.00000000       0.00000000      -1.23699915
2
Properties=species:S:1:pos:R:3:forces:R:3 energy=-6.013223419297772 pbc="F F F"
Ti       0.00000000       0.00000000       0.00000000       0.00000000       0.00000000       1.18087101
Ti       0.00000000       0.00000000       3.49696970       0.00000000       0.00000000      -1.18087101
2
Properties=species:S:1:pos:R:3:forces:R:3 energy=-5.944549624151519 pbc="F F F"
Ti       0.00000000       0.00000000       0.00000000       0.00000000       0.00000000       1.12360454
Ti       0.00000000       0.00000000       3.55656566       0.00000000       0.00000000      -1.12360454
2
Properties=species:S:1:pos:R:3:forces:R:3 energy=-5.879315071868754 pbc="F F F"
Ti       0.00000000       0.00000000       0.00000000       0.00000000       0.00000000       1.06555748
Ti       0.00000000       0.00000000       3.61616162       0.00000000       0.00000000      -1.06555748
2
Properties=species:S:1:pos:R:3:forces:R:3 energy=-5.817545041474203 pbc="F F F"
Ti       0.00000000       0.00000000       0.00000000       0.00000000       0.00000000       1.00748158
Ti       0.00000000       0.00000000       3.67575758       0.00000000       0.00000000      -1.00748158
2
Properties=species:S:1:pos:R:3:forces:R:3 energy=-5.759210655297179 pbc="F F F"
Ti       0.00000000       0.00000000       0.00000000       0.00000000       0.00000000       0.95047677
Ti       0.00000000       0.00000000       3.73535354       0.00000000       0.00000000      -0.95047677
2
Properties=species:S:1:pos:R:3:forces:R:3 energy=-5.70421113929822 pbc="F F F"
Ti       0.00000000       0.00000000       0.00000000       0.00000000       0.00000000       0.89571792
Ti       0.00000000       0.00000000       3.79494949       0.00000000       0.00000000      -0.89571792
2
Properties=species:S:1:pos:R:3:forces:R:3 energy=-5.6523844275281725 pbc="F F F"
Ti       0.00000000       0.00000000       0.00000000       0.00000000       0.00000000       0.84414119
Ti       0.00000000       0.00000000       3.85454545       0.00000000       0.00000000      -0.84414119
2
Properties=species:S:1:pos:R:3:forces:R:3 energy=-5.603522755042563 pbc="F F F"
Ti       0.00000000       0.00000000       0.00000000       0.00000000       0.00000000       0.79625767
Ti       0.00000000       0.00000000       3.91414141       0.00000000       0.00000000      -0.79625767
2
Properties=species:S:1:pos:R:3:forces:R:3 energy=-5.557402529244003 pbc="F F F"
Ti       0.00000000       0.00000000       0.00000000       0.00000000       0.00000000       0.75207651
Ti       0.00000000       0.00000000       3.97373737       0.00000000       0.00000000      -0.75207651
2
Properties=species:S:1:pos:R:3:forces:R:3 energy=-5.513815430339593 pbc="F F F"
Ti       0.00000000       0.00000000       0.00000000       0.00000000       0.00000000       0.71118975
Ti       0.00000000       0.00000000       4.03333333       0.00000000       0.00000000      -0.71118975
2
Properties=species:S:1:pos:R:3:forces:R:3 energy=-5.47258299055221 pbc="F F F"
Ti       0.00000000       0.00000000       0.00000000       0.00000000       0.00000000       0.67289585
Ti       0.00000000       0.00000000       4.09292929       0.00000000       0.00000000      -0.67289585
2
Properties=species:S:1:pos:R:3:forces:R:3 energy=-5.43357629649945 pbc="F F F"
Ti       0.00000000       0.00000000       0.00000000       0.00000000       0.00000000       0.63636333
Ti       0.00000000       0.00000000       4.15252525       0.00000000       0.00000000      -0.63636333
2
Properties=species:S:1:pos:R:3:forces:R:3 energy=-5.396715487013901 pbc="F F F"
Ti       0.00000000       0.00000000       0.00000000       0.00000000       0.00000000       0.60077292
Ti       0.00000000       0.00000000       4.21212121       0.00000000       0.00000000      -0.60077292
2
Properties=species:S:1:pos:R:3:forces:R:3 energy=-5.361963866370486 pbc="F F F"
Ti       0.00000000       0.00000000       0.00000000       0.00000000       0.00000000       0.56545019
Ti       0.00000000       0.00000000       4.27171717       0.00000000       0.00000000      -0.56545019
2
Properties=species:S:1:pos:R:3:forces:R:3 energy=-5.3293222392613675 pbc="F F F"
Ti       0.00000000       0.00000000       0.00000000       0.00000000       0.00000000       0.52994478
Ti       0.00000000       0.00000000       4.33131313       0.00000000       0.00000000      -0.52994478
2
Properties=species:S:1:pos:R:3:forces:R:3 energy=-5.298806233352453 pbc="F F F"
Ti       0.00000000       0.00000000       0.00000000       0.00000000       0.00000000       0.49408692
Ti       0.00000000       0.00000000       4.39090909       0.00000000       0.00000000      -0.49408692
2
Properties=species:S:1:pos:R:3:forces:R:3 energy=-5.27043569482431 pbc="F F F"
Ti       0.00000000       0.00000000       0.00000000       0.00000000       0.00000000       0.45798069
Ti       0.00000000       0.00000000       4.45050505       0.00000000       0.00000000      -0.45798069
2
Properties=species:S:1:pos:R:3:forces:R:3 energy=-5.244216899677502 pbc="F F F"
Ti       0.00000000       0.00000000       0.00000000       0.00000000       0.00000000       0.42196605
Ti       0.00000000       0.00000000       4.51010101       0.00000000       0.00000000      -0.42196605
2
Properties=species:S:1:pos:R:3:forces:R:3 energy=-5.220129305326298 pbc="F F F"
Ti       0.00000000       0.00000000       0.00000000       0.00000000       0.00000000       0.38652164
Ti       0.00000000       0.00000000       4.56969697       0.00000000       0.00000000      -0.38652164
2
Properties=species:S:1:pos:R:3:forces:R:3 energy=-5.19812457158178 pbc="F F F"
Ti       0.00000000       0.00000000       0.00000000       0.00000000       0.00000000       0.35217300
Ti       0.00000000       0.00000000       4.62929293       0.00000000       0.00000000      -0.35217300
2
Properties=species:S:1:pos:R:3:forces:R:3 energy=-5.178122334137701 pbc="F F F"
Ti       0.00000000       0.00000000       0.00000000       0.00000000       0.00000000       0.31938526
Ti       0.00000000       0.00000000       4.68888889       0.00000000       0.00000000      -0.31938526
2
Properties=species:S:1:pos:R:3:forces:R:3 energy=-5.160019125092312 pbc="F F F"
Ti       0.00000000       0.00000000       0.00000000       0.00000000       0.00000000       0.28847244
Ti       0.00000000       0.00000000       4.74848485       0.00000000       0.00000000      -0.28847244
2
Properties=species:S:1:pos:R:3:forces:R:3 energy=-5.143698095089051 pbc="F F F"
Ti       0.00000000       0.00000000       0.00000000       0.00000000       0.00000000       0.25959510
Ti       0.00000000       0.00000000       4.80808081       0.00000000       0.00000000      -0.25959510
2
Properties=species:S:1:pos:R:3:forces:R:3 energy=-5.129036566683338 pbc="F F F"
Ti       0.00000000       0.00000000       0.00000000       0.00000000       0.00000000       0.23275477
Ti       0.00000000       0.00000000       4.86767677       0.00000000       0.00000000      -0.23275477
2
Properties=species:S:1:pos:R:3:forces:R:3 energy=-5.115916239656068 pbc="F F F"
Ti       0.00000000       0.00000000       0.00000000       0.00000000       0.00000000       0.20786731
Ti       0.00000000       0.00000000       4.92727273       0.00000000       0.00000000      -0.20786731
2
Properties=species:S:1:pos:R:3:forces:R:3 energy=-5.104224049653255 pbc="F F F"
Ti       0.00000000       0.00000000       0.00000000       0.00000000       0.00000000       0.18482152
Ti       0.00000000       0.00000000       4.98686869       0.00000000       0.00000000      -0.18482152
2
Properties=species:S:1:pos:R:3:forces:R:3 energy=-5.093852607009335 pbc="F F F"
Ti       0.00000000       0.00000000       0.00000000       0.00000000       0.00000000       0.16354716
Ti       0.00000000       0.00000000       5.04646465       0.00000000       0.00000000      -0.16354716
2
Properties=species:S:1:pos:R:3:forces:R:3 energy=-5.084696147631051 pbc="F F F"
Ti       0.00000000       0.00000000       0.00000000       0.00000000       0.00000000       0.14402676
Ti       0.00000000       0.00000000       5.10606061       0.00000000       0.00000000      -0.14402676
2
Properties=species:S:1:pos:R:3:forces:R:3 energy=-5.07664879671122 pbc="F F F"
Ti       0.00000000       0.00000000       0.00000000       0.00000000       0.00000000       0.12632445
Ti       0.00000000       0.00000000       5.16565657       0.00000000       0.00000000      -0.12632445
2
Properties=species:S:1:pos:R:3:forces:R:3 energy=-5.069599692651204 pbc="F F F"
Ti       0.00000000       0.00000000       0.00000000       0.00000000       0.00000000       0.11059518
Ti       0.00000000       0.00000000       5.22525253       0.00000000       0.00000000      -0.11059518
2
Properties=species:S:1:pos:R:3:forces:R:3 energy=-5.0634248586544555 pbc="F F F"
Ti       0.00000000       0.00000000       0.00000000       0.00000000       0.00000000       0.09700233
Ti       0.00000000       0.00000000       5.28484848       0.00000000       0.00000000      -0.09700233
2
Properties=species:S:1:pos:R:3:forces:R:3 energy=-5.057996443198391 pbc="F F F"
Ti       0.00000000       0.00000000       0.00000000       0.00000000       0.00000000       0.08547200
Ti       0.00000000       0.00000000       5.34444444       0.00000000       0.00000000      -0.08547200
2
Properties=species:S:1:pos:R:3:forces:R:3 energy=-5.053206988044307 pbc="F F F"
Ti       0.00000000       0.00000000       0.00000000       0.00000000       0.00000000       0.07543388
Ti       0.00000000       0.00000000       5.40404040       0.00000000       0.00000000      -0.07543388
2
Properties=species:S:1:pos:R:3:forces:R:3 energy=-5.0489886601148095 pbc="F F F"
Ti       0.00000000       0.00000000       0.00000000       0.00000000       0.00000000       0.06623247
Ti       0.00000000       0.00000000       5.46363636       0.00000000       0.00000000      -0.06623247
2
Properties=species:S:1:pos:R:3:forces:R:3 energy=-5.045293748687666 pbc="F F F"
Ti       0.00000000       0.00000000       0.00000000       0.00000000       0.00000000       0.05802449
Ti       0.00000000       0.00000000       5.52323232       0.00000000       0.00000000      -0.05802449
2
Properties=species:S:1:pos:R:3:forces:R:3 energy=-5.042049495746479 pbc="F F F"
Ti       0.00000000       0.00000000       0.00000000       0.00000000       0.00000000       0.05096553
Ti       0.00000000       0.00000000       5.58282828       0.00000000       0.00000000      -0.05096553
2
Properties=species:S:1:pos:R:3:forces:R:3 energy=-5.039209136563553 pbc="F F F"
Ti       0.00000000       0.00000000       0.00000000       0.00000000       0.00000000       0.04449809
Ti       0.00000000       0.00000000       5.64242424       0.00000000       0.00000000      -0.04449809
2
Properties=species:S:1:pos:R:3:forces:R:3 energy=-5.036703455546901 pbc="F F F"
Ti       0.00000000       0.00000000       0.00000000       0.00000000       0.00000000       0.04021705
Ti       0.00000000       0.00000000       5.70202020       0.00000000       0.00000000      -0.04021705
2
Properties=species:S:1:pos:R:3:forces:R:3 energy=-5.034307325688931 pbc="F F F"
Ti       0.00000000       0.00000000       0.00000000       0.00000000       0.00000000       0.04119994
Ti       0.00000000       0.00000000       5.76161616       0.00000000       0.00000000      -0.04119994
2
Properties=species:S:1:pos:R:3:forces:R:3 energy=-5.031739866544421 pbc="F F F"
Ti       0.00000000       0.00000000       0.00000000       0.00000000       0.00000000       0.04442111
Ti       0.00000000       0.00000000       5.82121212       0.00000000       0.00000000      -0.04442111
2
Properties=species:S:1:pos:R:3:forces:R:3 energy=-5.029186761484611 pbc="F F F"
Ti       0.00000000       0.00000000       0.00000000       0.00000000       0.00000000       0.03962044
Ti       0.00000000       0.00000000       5.88080808       0.00000000       0.00000000      -0.03962044
2
Properties=species:S:1:pos:R:3:forces:R:3 energy=-5.02713765622626 pbc="F F F"
Ti       0.00000000       0.00000000       0.00000000       0.00000000       0.00000000       0.02891187
Ti       0.00000000       0.00000000       5.94040404       0.00000000       0.00000000      -0.02891187
2
Properties=species:S:1:pos:R:3:forces:R:3 energy=-5.025633318490041 pbc="F F F"
Ti       0.00000000       0.00000000       0.00000000       0.00000000       0.00000000       0.02308579
Ti       0.00000000       0.00000000       6.00000000       0.00000000       0.00000000      -0.02308579
