2
Properties=species:S:1:pos:R:3:forces:R:3 energy=90395.34744022843 pbc="F F F"
Tl       0.00000000       0.00000000       0.00000000       0.00000000       0.00000000 -2279351.50000000
Tl       0.00000000       0.00000000       0.10000000       0.00000000       0.00000000 2279351.50000000
2
Properties=species:S:1:pos:R:3:forces:R:3 energy=25286.79275272844 pbc="F F F"
Tl       0.00000000       0.00000000       0.00000000       0.00000000       0.00000000 -463330.21875000
Tl       0.00000000       0.00000000       0.15959596       0.00000000       0.00000000  463330.21875000
2
Properties=species:S:1:pos:R:3:forces:R:3 energy=9641.392362103441 pbc="F F F"
Tl       0.00000000       0.00000000       0.00000000       0.00000000       0.00000000 -137640.67187500
Tl       0.00000000       0.00000000       0.21919192       0.00000000       0.00000000  137640.67187500
2
Properties=species:S:1:pos:R:3:forces:R:3 energy=4543.97829960344 pbc="F F F"
Tl       0.00000000       0.00000000       0.00000000       0.00000000       0.00000000  -50094.94921875
Tl       0.00000000       0.00000000       0.27878788       0.00000000       0.00000000   50094.94921875
2
Properties=species:S:1:pos:R:3:forces:R:3 energy=2578.6303992128155 pbc="F F F"
Tl       0.00000000       0.00000000       0.00000000       0.00000000       0.00000000  -20733.91601562
Tl       0.00000000       0.00000000       0.33838384       0.00000000       0.00000000   20733.91601562
2
Properties=species:S:1:pos:R:3:forces:R:3 energy=1725.0250525331278 pbc="F F F"
Tl       0.00000000       0.00000000       0.00000000       0.00000000       0.00000000   -9603.38574219
Tl       0.00000000       0.00000000       0.39797980       0.00000000       0.00000000    9603.38574219
2
Properties=species:S:1:pos:R:3:forces:R:3 energy=1309.1386999972333 pbc="F F F"
Tl       0.00000000       0.00000000       0.00000000       0.00000000       0.00000000   -4980.94824219
Tl       0.00000000       0.00000000       0.45757576       0.00000000       0.00000000    4980.94824219
2
Properties=species:S:1:pos:R:3:forces:R:3 energy=1077.6191687567366 pbc="F F F"
Tl       0.00000000       0.00000000       0.00000000       0.00000000       0.00000000   -3095.56982422
Tl       0.00000000       0.00000000       0.51717172       0.00000000       0.00000000    3095.56982422
2
Properties=species:S:1:pos:R:3:forces:R:3 energy=917.6300940623767 pbc="F F F"
Tl       0.00000000       0.00000000       0.00000000       0.00000000       0.00000000   -2389.40649414
Tl       0.00000000       0.00000000       0.57676768       0.00000000       0.00000000    2389.40649414
2
Properties=species:S:1:pos:R:3:forces:R:3 energy=783.6784339283015 pbc="F F F"
Tl       0.00000000       0.00000000       0.00000000       0.00000000       0.00000000   -2152.87524414
Tl       0.00000000       0.00000000       0.63636364       0.00000000       0.00000000    2152.87524414
2
Properties=species:S:1:pos:R:3:forces:R:3 energy=657.8796058381475 pbc="F F F"
Tl       0.00000000       0.00000000       0.00000000       0.00000000       0.00000000   -2078.86376953
Tl       0.00000000       0.00000000       0.69595960       0.00000000       0.00000000    2078.86376953
2
Properties=species:S:1:pos:R:3:forces:R:3 energy=536.3241859669577 pbc="F F F"
Tl       0.00000000       0.00000000       0.00000000       0.00000000       0.00000000   -1981.49389648
Tl       0.00000000       0.00000000       0.75555556       0.00000000       0.00000000    1981.49389648
2
Properties=species:S:1:pos:R:3:forces:R:3 energy=426.3128945485826 pbc="F F F"
Tl       0.00000000       0.00000000       0.00000000       0.00000000       0.00000000   -1666.59936523
Tl       0.00000000       0.00000000       0.81515152       0.00000000       0.00000000    1666.59936523
2
Properties=species:S:1:pos:R:3:forces:R:3 energy=338.2666300110189 pbc="F F F"
Tl       0.00000000       0.00000000       0.00000000       0.00000000       0.00000000   -1336.00659180
Tl       0.00000000       0.00000000       0.87474747       0.00000000       0.00000000    1336.00659180
2
Properties=species:S:1:pos:R:3:forces:R:3 energy=265.7380046938 pbc="F F F"
Tl       0.00000000       0.00000000       0.00000000       0.00000000       0.00000000   -1092.78393555
Tl       0.00000000       0.00000000       0.93434343       0.00000000       0.00000000    1092.78393555
2
Properties=species:S:1:pos:R:3:forces:R:3 energy=208.65615677418415 pbc="F F F"
Tl       0.00000000       0.00000000       0.00000000       0.00000000       0.00000000    -826.75341797
Tl       0.00000000       0.00000000       0.99393939       0.00000000       0.00000000     826.75341797
2
Properties=species:S:1:pos:R:3:forces:R:3 energy=165.78352219693542 pbc="F F F"
Tl       0.00000000       0.00000000       0.00000000       0.00000000       0.00000000    -622.53485107
Tl       0.00000000       0.00000000       1.05353535       0.00000000       0.00000000     622.53485107
2
Properties=species:S:1:pos:R:3:forces:R:3 energy=133.41526699668574 pbc="F F F"
Tl       0.00000000       0.00000000       0.00000000       0.00000000       0.00000000    -472.39056396
Tl       0.00000000       0.00000000       1.11313131       0.00000000       0.00000000     472.39056396
2
Properties=species:S:1:pos:R:3:forces:R:3 energy=108.71299703373865 pbc="F F F"
Tl       0.00000000       0.00000000       0.00000000       0.00000000       0.00000000    -360.74600220
Tl       0.00000000       0.00000000       1.17272727       0.00000000       0.00000000     360.74600220
2
Properties=species:S:1:pos:R:3:forces:R:3 energy=89.77483398600658 pbc="F F F"
Tl       0.00000000       0.00000000       0.00000000       0.00000000       0.00000000    -282.03894043
Tl       0.00000000       0.00000000       1.23232323       0.00000000       0.00000000     282.03894043
2
Properties=species:S:1:pos:R:3:forces:R:3 energy=74.35775878749952 pbc="F F F"
Tl       0.00000000       0.00000000       0.00000000       0.00000000       0.00000000    -238.93304443
Tl       0.00000000       0.00000000       1.29191919       0.00000000       0.00000000     238.93304443
2
Properties=species:S:1:pos:R:3:forces:R:3 energy=61.18368386026452 pbc="F F F"
Tl       0.00000000       0.00000000       0.00000000       0.00000000       0.00000000    -202.36712646
Tl       0.00000000       0.00000000       1.35151515       0.00000000       0.00000000     202.36712646
2
Properties=species:S:1:pos:R:3:forces:R:3 energy=50.310050979083805 pbc="F F F"
Tl       0.00000000       0.00000000       0.00000000       0.00000000       0.00000000    -163.14404297
Tl       0.00000000       0.00000000       1.41111111       0.00000000       0.00000000     163.14404297
2
Properties=species:S:1:pos:R:3:forces:R:3 energy=41.53790084405659 pbc="F F F"
Tl       0.00000000       0.00000000       0.00000000       0.00000000       0.00000000    -133.26513672
Tl       0.00000000       0.00000000       1.47070707       0.00000000       0.00000000     133.26513672
2
Properties=species:S:1:pos:R:3:forces:R:3 energy=34.2332537306795 pbc="F F F"
Tl       0.00000000       0.00000000       0.00000000       0.00000000       0.00000000    -112.99209595
Tl       0.00000000       0.00000000       1.53030303       0.00000000       0.00000000     112.99209595
2
Properties=species:S:1:pos:R:3:forces:R:3 energy=27.981194639644876 pbc="F F F"
Tl       0.00000000       0.00000000       0.00000000       0.00000000       0.00000000     -97.30777740
Tl       0.00000000       0.00000000       1.58989899       0.00000000       0.00000000      97.30777740
2
Properties=species:S:1:pos:R:3:forces:R:3 energy=22.595005663087722 pbc="F F F"
Tl       0.00000000       0.00000000       0.00000000       0.00000000       0.00000000     -83.68141937
Tl       0.00000000       0.00000000       1.64949495       0.00000000       0.00000000      83.68141937
2
Properties=species:S:1:pos:R:3:forces:R:3 energy=17.985438251487427 pbc="F F F"
Tl       0.00000000       0.00000000       0.00000000       0.00000000       0.00000000     -71.16533661
Tl       0.00000000       0.00000000       1.70909091       0.00000000       0.00000000      71.16533661
2
Properties=species:S:1:pos:R:3:forces:R:3 energy=14.094485294429285 pbc="F F F"
Tl       0.00000000       0.00000000       0.00000000       0.00000000       0.00000000     -59.58018875
Tl       0.00000000       0.00000000       1.76868687       0.00000000       0.00000000      59.58018875
2
Properties=species:S:1:pos:R:3:forces:R:3 energy=10.861167072318718 pbc="F F F"
Tl       0.00000000       0.00000000       0.00000000       0.00000000       0.00000000     -49.13868713
Tl       0.00000000       0.00000000       1.82828283       0.00000000       0.00000000      49.13868713
2
Properties=species:S:1:pos:R:3:forces:R:3 energy=8.211546317966702 pbc="F F F"
Tl       0.00000000       0.00000000       0.00000000       0.00000000       0.00000000     -40.00037003
Tl       0.00000000       0.00000000       1.88787879       0.00000000       0.00000000      40.00037003
2
Properties=species:S:1:pos:R:3:forces:R:3 energy=6.067568767999405 pbc="F F F"
Tl       0.00000000       0.00000000       0.00000000       0.00000000       0.00000000     -32.16504669
Tl       0.00000000       0.00000000       1.94747475       0.00000000       0.00000000      32.16504669
2
Properties=species:S:1:pos:R:3:forces:R:3 energy=4.3521748635297595 pbc="F F F"
Tl       0.00000000       0.00000000       0.00000000       0.00000000       0.00000000     -25.61391640
Tl       0.00000000       0.00000000       2.00707071       0.00000000       0.00000000      25.61391640
2
Properties=species:S:1:pos:R:3:forces:R:3 energy=2.9903180200696964 pbc="F F F"
Tl       0.00000000       0.00000000       0.00000000       0.00000000       0.00000000     -20.28211594
Tl       0.00000000       0.00000000       2.06666667       0.00000000       0.00000000      20.28211594
2
Properties=species:S:1:pos:R:3:forces:R:3 energy=1.9134004178656185 pbc="F F F"
Tl       0.00000000       0.00000000       0.00000000       0.00000000       0.00000000     -16.02186775
Tl       0.00000000       0.00000000       2.12626263       0.00000000       0.00000000      16.02186775
2
Properties=species:S:1:pos:R:3:forces:R:3 energy=1.0630283139308976 pbc="F F F"
Tl       0.00000000       0.00000000       0.00000000       0.00000000       0.00000000     -12.64876080
Tl       0.00000000       0.00000000       2.18585859       0.00000000       0.00000000      12.64876080
2
Properties=species:S:1:pos:R:3:forces:R:3 energy=0.39164127244165503 pbc="F F F"
Tl       0.00000000       0.00000000       0.00000000       0.00000000       0.00000000      -9.98807716
Tl       0.00000000       0.00000000       2.24545455       0.00000000       0.00000000       9.98807716
2
Properties=species:S:1:pos:R:3:forces:R:3 energy=-0.13866637889744723 pbc="F F F"
Tl       0.00000000       0.00000000       0.00000000       0.00000000       0.00000000      -7.89172459
Tl       0.00000000       0.00000000       2.30505051       0.00000000       0.00000000       7.89172459
2
Properties=species:S:1:pos:R:3:forces:R:3 energy=-0.5577748487377632 pbc="F F F"
Tl       0.00000000       0.00000000       0.00000000       0.00000000       0.00000000      -6.23828650
Tl       0.00000000       0.00000000       2.36464646       0.00000000       0.00000000       6.23828650
2
Properties=species:S:1:pos:R:3:forces:R:3 energy=-0.8890301186069854 pbc="F F F"
Tl       0.00000000       0.00000000       0.00000000       0.00000000       0.00000000      -4.92846155
Tl       0.00000000       0.00000000       2.42424242       0.00000000       0.00000000       4.92846155
2
Properties=species:S:1:pos:R:3:forces:R:3 energy=-1.1504239107191863 pbc="F F F"
Tl       0.00000000       0.00000000       0.00000000       0.00000000       0.00000000      -3.88186622
Tl       0.00000000       0.00000000       2.48383838       0.00000000       0.00000000       3.88186622
2
Properties=species:S:1:pos:R:3:forces:R:3 energy=-1.355690032220168 pbc="F F F"
Tl       0.00000000       0.00000000       0.00000000       0.00000000       0.00000000      -3.03580022
Tl       0.00000000       0.00000000       2.54343434       0.00000000       0.00000000       3.03580022
2
Properties=species:S:1:pos:R:3:forces:R:3 energy=-1.5153181056432237 pbc="F F F"
Tl       0.00000000       0.00000000       0.00000000       0.00000000       0.00000000      -2.34375501
Tl       0.00000000       0.00000000       2.60303030       0.00000000       0.00000000       2.34375501
2
Properties=species:S:1:pos:R:3:forces:R:3 energy=-1.6374422658272265 pbc="F F F"
Tl       0.00000000       0.00000000       0.00000000       0.00000000       0.00000000      -1.77254152
Tl       0.00000000       0.00000000       2.66262626       0.00000000       0.00000000       1.77254152
2
Properties=species:S:1:pos:R:3:forces:R:3 energy=-1.7285201970367114 pbc="F F F"
Tl       0.00000000       0.00000000       0.00000000       0.00000000       0.00000000      -1.29863489
Tl       0.00000000       0.00000000       2.72222222       0.00000000       0.00000000       1.29863489
2
Properties=species:S:1:pos:R:3:forces:R:3 energy=-1.7938188949776857 pbc="F F F"
Tl       0.00000000       0.00000000       0.00000000       0.00000000       0.00000000      -0.90497237
Tl       0.00000000       0.00000000       2.78181818       0.00000000       0.00000000       0.90497237
2
Properties=species:S:1:pos:R:3:forces:R:3 energy=-1.837723970218468 pbc="F F F"
Tl       0.00000000       0.00000000       0.00000000       0.00000000       0.00000000      -0.57878119
Tl       0.00000000       0.00000000       2.84141414       0.00000000       0.00000000       0.57878119
2
Properties=species:S:1:pos:R:3:forces:R:3 energy=-1.863950138612828 pbc="F F F"
Tl       0.00000000       0.00000000       0.00000000       0.00000000       0.00000000      -0.31027818
Tl       0.00000000       0.00000000       2.90101010       0.00000000       0.00000000       0.31027818
2
Properties=species:S:1:pos:R:3:forces:R:3 energy=-1.8756973847972296 pbc="F F F"
Tl       0.00000000       0.00000000       0.00000000       0.00000000       0.00000000      -0.09168909
Tl       0.00000000       0.00000000       2.96060606       0.00000000       0.00000000       0.09168909
2
Properties=species:S:1:pos:R:3:forces:R:3 energy=-1.8757388167652913 pbc="F F F"
Tl       0.00000000       0.00000000       0.00000000       0.00000000       0.00000000       0.08357900
Tl       0.00000000       0.00000000       3.02020202       0.00000000       0.00000000      -0.08357900
2
Properties=species:S:1:pos:R:3:forces:R:3 energy=-1.866474147657237 pbc="F F F"
Tl       0.00000000       0.00000000       0.00000000       0.00000000       0.00000000       0.22164436
Tl       0.00000000       0.00000000       3.07979798       0.00000000       0.00000000      -0.22164436
2
Properties=species:S:1:pos:R:3:forces:R:3 energy=-1.8499394287481836 pbc="F F F"
Tl       0.00000000       0.00000000       0.00000000       0.00000000       0.00000000       0.32856333
Tl       0.00000000       0.00000000       3.13939394       0.00000000       0.00000000      -0.32856333
2
Properties=species:S:1:pos:R:3:forces:R:3 energy=-1.8278117683188537 pbc="F F F"
Tl       0.00000000       0.00000000       0.00000000       0.00000000       0.00000000       0.41030148
Tl       0.00000000       0.00000000       3.19898990       0.00000000       0.00000000      -0.41030148
2
Properties=species:S:1:pos:R:3:forces:R:3 energy=-1.8014234003679488 pbc="F F F"
Tl       0.00000000       0.00000000       0.00000000       0.00000000       0.00000000       0.47245118
Tl       0.00000000       0.00000000       3.25858586       0.00000000       0.00000000      -0.47245118
2
Properties=species:S:1:pos:R:3:forces:R:3 energy=-1.7717918884160304 pbc="F F F"
Tl       0.00000000       0.00000000       0.00000000       0.00000000       0.00000000       0.51984978
Tl       0.00000000       0.00000000       3.31818182       0.00000000       0.00000000      -0.51984978
2
Properties=species:S:1:pos:R:3:forces:R:3 energy=-1.7396774731569409 pbc="F F F"
Tl       0.00000000       0.00000000       0.00000000       0.00000000       0.00000000       0.55634141
Tl       0.00000000       0.00000000       3.37777778       0.00000000       0.00000000      -0.55634141
2
Properties=species:S:1:pos:R:3:forces:R:3 energy=-1.7056410779917928 pbc="F F F"
Tl       0.00000000       0.00000000       0.00000000       0.00000000       0.00000000       0.58472443
Tl       0.00000000       0.00000000       3.43737374       0.00000000       0.00000000      -0.58472443
2
Properties=species:S:1:pos:R:3:forces:R:3 energy=-1.670107159634341 pbc="F F F"
Tl       0.00000000       0.00000000       0.00000000       0.00000000       0.00000000       0.60682374
Tl       0.00000000       0.00000000       3.49696970       0.00000000       0.00000000      -0.60682374
2
Properties=species:S:1:pos:R:3:forces:R:3 energy=-1.6334176033974834 pbc="F F F"
Tl       0.00000000       0.00000000       0.00000000       0.00000000       0.00000000       0.62362415
Tl       0.00000000       0.00000000       3.55656566       0.00000000       0.00000000      -0.62362415
2
Properties=species:S:1:pos:R:3:forces:R:3 energy=-1.5958730351889443 pbc="F F F"
Tl       0.00000000       0.00000000       0.00000000       0.00000000       0.00000000       0.63555646
Tl       0.00000000       0.00000000       3.61616162       0.00000000       0.00000000      -0.63555646
2
Properties=species:S:1:pos:R:3:forces:R:3 energy=-1.5577563282847748 pbc="F F F"
Tl       0.00000000       0.00000000       0.00000000       0.00000000       0.00000000       0.64284980
Tl       0.00000000       0.00000000       3.67575758       0.00000000       0.00000000      -0.64284980
2
Properties=species:S:1:pos:R:3:forces:R:3 energy=-1.5193378123479124 pbc="F F F"
Tl       0.00000000       0.00000000       0.00000000       0.00000000       0.00000000       0.64575326
Tl       0.00000000       0.00000000       3.73535354       0.00000000       0.00000000      -0.64575326
2
Properties=species:S:1:pos:R:3:forces:R:3 energy=-1.4808690184997597 pbc="F F F"
Tl       0.00000000       0.00000000       0.00000000       0.00000000       0.00000000       0.64459270
Tl       0.00000000       0.00000000       3.79494949       0.00000000       0.00000000      -0.64459270
2
Properties=species:S:1:pos:R:3:forces:R:3 energy=-1.4425813196524144 pbc="F F F"
Tl       0.00000000       0.00000000       0.00000000       0.00000000       0.00000000       0.63973379
Tl       0.00000000       0.00000000       3.85454545       0.00000000       0.00000000      -0.63973379
2
Properties=species:S:1:pos:R:3:forces:R:3 energy=-1.4046841638720136 pbc="F F F"
Tl       0.00000000       0.00000000       0.00000000       0.00000000       0.00000000       0.63154763
Tl       0.00000000       0.00000000       3.91414141       0.00000000       0.00000000      -0.63154763
2
Properties=species:S:1:pos:R:3:forces:R:3 energy=-1.3673645333532134 pbc="F F F"
Tl       0.00000000       0.00000000       0.00000000       0.00000000       0.00000000       0.62038815
Tl       0.00000000       0.00000000       3.97373737       0.00000000       0.00000000      -0.62038815
2
Properties=species:S:1:pos:R:3:forces:R:3 energy=-1.3307907139350286 pbc="F F F"
Tl       0.00000000       0.00000000       0.00000000       0.00000000       0.00000000       0.60660565
Tl       0.00000000       0.00000000       4.03333333       0.00000000       0.00000000      -0.60660565
2
Properties=species:S:1:pos:R:3:forces:R:3 energy=-1.2951069361865264 pbc="F F F"
Tl       0.00000000       0.00000000       0.00000000       0.00000000       0.00000000       0.59056324
Tl       0.00000000       0.00000000       4.09292929       0.00000000       0.00000000      -0.59056324
2
Properties=species:S:1:pos:R:3:forces:R:3 energy=-1.2604369318466644 pbc="F F F"
Tl       0.00000000       0.00000000       0.00000000       0.00000000       0.00000000       0.57267129
Tl       0.00000000       0.00000000       4.15252525       0.00000000       0.00000000      -0.57267129
2
Properties=species:S:1:pos:R:3:forces:R:3 energy=-1.226876776099224 pbc="F F F"
Tl       0.00000000       0.00000000       0.00000000       0.00000000       0.00000000       0.55340749
Tl       0.00000000       0.00000000       4.21212121       0.00000000       0.00000000      -0.55340749
2
Properties=species:S:1:pos:R:3:forces:R:3 energy=-1.1944915001955014 pbc="F F F"
Tl       0.00000000       0.00000000       0.00000000       0.00000000       0.00000000       0.53331167
Tl       0.00000000       0.00000000       4.27171717       0.00000000       0.00000000      -0.53331167
2
Properties=species:S:1:pos:R:3:forces:R:3 energy=-1.1633152486774627 pbc="F F F"
Tl       0.00000000       0.00000000       0.00000000       0.00000000       0.00000000       0.51296687
Tl       0.00000000       0.00000000       4.33131313       0.00000000       0.00000000      -0.51296687
2
Properties=species:S:1:pos:R:3:forces:R:3 energy=-1.133344143827433 pbc="F F F"
Tl       0.00000000       0.00000000       0.00000000       0.00000000       0.00000000       0.49293190
Tl       0.00000000       0.00000000       4.39090909       0.00000000       0.00000000      -0.49293190
2
Properties=species:S:1:pos:R:3:forces:R:3 energy=-1.1045457717261074 pbc="F F F"
Tl       0.00000000       0.00000000       0.00000000       0.00000000       0.00000000       0.47368053
Tl       0.00000000       0.00000000       4.45050505       0.00000000       0.00000000      -0.47368053
2
Properties=species:S:1:pos:R:3:forces:R:3 energy=-1.0768645003211992 pbc="F F F"
Tl       0.00000000       0.00000000       0.00000000       0.00000000       0.00000000       0.45548159
Tl       0.00000000       0.00000000       4.51010101       0.00000000       0.00000000      -0.45548159
2
Properties=species:S:1:pos:R:3:forces:R:3 energy=-1.0502346831481821 pbc="F F F"
Tl       0.00000000       0.00000000       0.00000000       0.00000000       0.00000000       0.43833435
Tl       0.00000000       0.00000000       4.56969697       0.00000000       0.00000000      -0.43833435
2
Properties=species:S:1:pos:R:3:forces:R:3 energy=-1.0246032754172125 pbc="F F F"
Tl       0.00000000       0.00000000       0.00000000       0.00000000       0.00000000       0.42191887
Tl       0.00000000       0.00000000       4.62929293       0.00000000       0.00000000      -0.42191887
2
Properties=species:S:1:pos:R:3:forces:R:3 energy=-0.9999434607180515 pbc="F F F"
Tl       0.00000000       0.00000000       0.00000000       0.00000000       0.00000000       0.40562150
Tl       0.00000000       0.00000000       4.68888889       0.00000000       0.00000000      -0.40562150
2
Properties=species:S:1:pos:R:3:forces:R:3 energy=-0.9762690353303661 pbc="F F F"
Tl       0.00000000       0.00000000       0.00000000       0.00000000       0.00000000       0.38869292
Tl       0.00000000       0.00000000       4.74848485       0.00000000       0.00000000      -0.38869292
2
Properties=species:S:1:pos:R:3:forces:R:3 energy=-0.9536397746416279 pbc="F F F"
Tl       0.00000000       0.00000000       0.00000000       0.00000000       0.00000000       0.37050602
Tl       0.00000000       0.00000000       4.80808081       0.00000000       0.00000000      -0.37050602
2
Properties=species:S:1:pos:R:3:forces:R:3 energy=-0.9321357694717685 pbc="F F F"
Tl       0.00000000       0.00000000       0.00000000       0.00000000       0.00000000       0.35091671
Tl       0.00000000       0.00000000       4.86767677       0.00000000       0.00000000      -0.35091671
2
Properties=species:S:1:pos:R:3:forces:R:3 energy=-0.9118279871303285 pbc="F F F"
Tl       0.00000000       0.00000000       0.00000000       0.00000000       0.00000000       0.33058006
Tl       0.00000000       0.00000000       4.92727273       0.00000000       0.00000000      -0.33058006
2
Properties=species:S:1:pos:R:3:forces:R:3 energy=-0.8927161437856935 pbc="F F F"
Tl       0.00000000       0.00000000       0.00000000       0.00000000       0.00000000       0.31113398
Tl       0.00000000       0.00000000       4.98686869       0.00000000       0.00000000      -0.31113398
2
Properties=species:S:1:pos:R:3:forces:R:3 energy=-0.8746794272629743 pbc="F F F"
Tl       0.00000000       0.00000000       0.00000000       0.00000000       0.00000000       0.29500431
Tl       0.00000000       0.00000000       5.04646465       0.00000000       0.00000000      -0.29500431
2
Properties=species:S:1:pos:R:3:forces:R:3 energy=-0.8574389766280686 pbc="F F F"
Tl       0.00000000       0.00000000       0.00000000       0.00000000       0.00000000       0.28469491
Tl       0.00000000       0.00000000       5.10606061       0.00000000       0.00000000      -0.28469491
2
Properties=species:S:1:pos:R:3:forces:R:3 energy=-0.8405995163240245 pbc="F F F"
Tl       0.00000000       0.00000000       0.00000000       0.00000000       0.00000000       0.28150865
Tl       0.00000000       0.00000000       5.16565657       0.00000000       0.00000000      -0.28150865
2
Properties=species:S:1:pos:R:3:forces:R:3 energy=-0.8237721389874146 pbc="F F F"
Tl       0.00000000       0.00000000       0.00000000       0.00000000       0.00000000       0.28378624
Tl       0.00000000       0.00000000       5.22525253       0.00000000       0.00000000      -0.28378624
2
Properties=species:S:1:pos:R:3:forces:R:3 energy=-0.8067873134418305 pbc="F F F"
Tl       0.00000000       0.00000000       0.00000000       0.00000000       0.00000000       0.28535905
Tl       0.00000000       0.00000000       5.28484848       0.00000000       0.00000000      -0.28535905
2
Properties=species:S:1:pos:R:3:forces:R:3 energy=-0.7899582053472116 pbc="F F F"
Tl       0.00000000       0.00000000       0.00000000       0.00000000       0.00000000       0.27716300
Tl       0.00000000       0.00000000       5.34444444       0.00000000       0.00000000      -0.27716300
2
Properties=species:S:1:pos:R:3:forces:R:3 energy=-0.7739695903970537 pbc="F F F"
Tl       0.00000000       0.00000000       0.00000000       0.00000000       0.00000000       0.25895128
Tl       0.00000000       0.00000000       5.40404040       0.00000000       0.00000000      -0.25895128
2
Properties=species:S:1:pos:R:3:forces:R:3 energy=-0.7588268192745725 pbc="F F F"
Tl       0.00000000       0.00000000       0.00000000       0.00000000       0.00000000       0.25380167
Tl       0.00000000       0.00000000       5.46363636       0.00000000       0.00000000      -0.25380167
2
Properties=species:S:1:pos:R:3:forces:R:3 energy=-0.7432214822642723 pbc="F F F"
Tl       0.00000000       0.00000000       0.00000000       0.00000000       0.00000000       0.27108443
Tl       0.00000000       0.00000000       5.52323232       0.00000000       0.00000000      -0.27108443
2
Properties=species:S:1:pos:R:3:forces:R:3 energy=-0.7269971969694817 pbc="F F F"
Tl       0.00000000       0.00000000       0.00000000       0.00000000       0.00000000       0.26625508
Tl       0.00000000       0.00000000       5.58282828       0.00000000       0.00000000      -0.26625508
2
Properties=species:S:1:pos:R:3:forces:R:3 energy=-0.7121711089627163 pbc="F F F"
Tl       0.00000000       0.00000000       0.00000000       0.00000000       0.00000000       0.22909600
Tl       0.00000000       0.00000000       5.64242424       0.00000000       0.00000000      -0.22909600
2
Properties=species:S:1:pos:R:3:forces:R:3 energy=-0.6993544514691351 pbc="F F F"
Tl       0.00000000       0.00000000       0.00000000       0.00000000       0.00000000       0.20867588
Tl       0.00000000       0.00000000       5.70202020       0.00000000       0.00000000      -0.20867588
2
Properties=species:S:1:pos:R:3:forces:R:3 energy=-0.6861217585336888 pbc="F F F"
Tl       0.00000000       0.00000000       0.00000000       0.00000000       0.00000000       0.24293604
Tl       0.00000000       0.00000000       5.76161616       0.00000000       0.00000000      -0.24293604
2
Properties=species:S:1:pos:R:3:forces:R:3 energy=-0.6707933035026319 pbc="F F F"
Tl       0.00000000       0.00000000       0.00000000       0.00000000       0.00000000       0.25674254
Tl       0.00000000       0.00000000       5.82121212       0.00000000       0.00000000      -0.25674254
2
Properties=species:S:1:pos:R:3:forces:R:3 energy=-0.6576528902111366 pbc="F F F"
Tl       0.00000000       0.00000000       0.00000000       0.00000000       0.00000000       0.17179137
Tl       0.00000000       0.00000000       5.88080808       0.00000000       0.00000000      -0.17179137
2
Properties=species:S:1:pos:R:3:forces:R:3 energy=-0.650829216201477 pbc="F F F"
Tl       0.00000000       0.00000000       0.00000000       0.00000000       0.00000000       0.05939076
Tl       0.00000000       0.00000000       5.94040404       0.00000000       0.00000000      -0.05939076
2
Properties=species:S:1:pos:R:3:forces:R:3 energy=-0.6491930268010065 pbc="F F F"
Tl       0.00000000       0.00000000       0.00000000       0.00000000       0.00000000       0.01155493
Tl       0.00000000       0.00000000       6.00000000       0.00000000       0.00000000      -0.01155493
