2
Properties=species:S:1:pos:R:3:forces:R:3 energy=114152.81754058978 pbc="F F F"
U        0.00000000       0.00000000       0.00000000       0.00000000       0.00000000 -2809522.50000000
U        0.00000000       0.00000000       0.10000000       0.00000000       0.00000000 2809522.50000000
2
Properties=species:S:1:pos:R:3:forces:R:3 energy=34480.76675933977 pbc="F F F"
U        0.00000000       0.00000000       0.00000000       0.00000000       0.00000000 -561005.87500000
U        0.00000000       0.00000000       0.15959596       0.00000000       0.00000000  561005.87500000
2
Properties=species:S:1:pos:R:3:forces:R:3 energy=15635.821446839771 pbc="F F F"
U        0.00000000       0.00000000       0.00000000       0.00000000       0.00000000 -164669.87500000
U        0.00000000       0.00000000       0.21919192       0.00000000       0.00000000  164669.87500000
2
Properties=species:S:1:pos:R:3:forces:R:3 energy=9546.499181214771 pbc="F F F"
U        0.00000000       0.00000000       0.00000000       0.00000000       0.00000000  -60013.58984375
U        0.00000000       0.00000000       0.27878788       0.00000000       0.00000000   60013.58984375
2
Properties=species:S:1:pos:R:3:forces:R:3 energy=7151.922521058522 pbc="F F F"
U        0.00000000       0.00000000       0.00000000       0.00000000       0.00000000  -26294.40429688
U        0.00000000       0.00000000       0.33838384       0.00000000       0.00000000   26294.40429688
2
Properties=species:S:1:pos:R:3:forces:R:3 energy=5985.661778871022 pbc="F F F"
U        0.00000000       0.00000000       0.00000000       0.00000000       0.00000000  -14952.62402344
U        0.00000000       0.00000000       0.39797980       0.00000000       0.00000000   14952.62402344
2
Properties=species:S:1:pos:R:3:forces:R:3 energy=5208.932774964772 pbc="F F F"
U        0.00000000       0.00000000       0.00000000       0.00000000       0.00000000  -11953.73437500
U        0.00000000       0.00000000       0.45757576       0.00000000       0.00000000   11953.73437500
2
Properties=species:S:1:pos:R:3:forces:R:3 energy=4494.747228115114 pbc="F F F"
U        0.00000000       0.00000000       0.00000000       0.00000000       0.00000000  -12342.22070312
U        0.00000000       0.00000000       0.51717172       0.00000000       0.00000000   12342.22070312
2
Properties=species:S:1:pos:R:3:forces:R:3 energy=3796.7826285184105 pbc="F F F"
U        0.00000000       0.00000000       0.00000000       0.00000000       0.00000000  -12353.44433594
U        0.00000000       0.00000000       0.57676768       0.00000000       0.00000000   12353.44433594
2
Properties=species:S:1:pos:R:3:forces:R:3 energy=3019.3087516032992 pbc="F F F"
U        0.00000000       0.00000000       0.00000000       0.00000000       0.00000000  -13627.74609375
U        0.00000000       0.00000000       0.63636364       0.00000000       0.00000000   13627.74609375
2
Properties=species:S:1:pos:R:3:forces:R:3 energy=2194.835362994781 pbc="F F F"
U        0.00000000       0.00000000       0.00000000       0.00000000       0.00000000  -13787.66503906
U        0.00000000       0.00000000       0.69595960       0.00000000       0.00000000   13787.66503906
2
Properties=species:S:1:pos:R:3:forces:R:3 energy=1410.2783562475424 pbc="F F F"
U        0.00000000       0.00000000       0.00000000       0.00000000       0.00000000  -12244.33691406
U        0.00000000       0.00000000       0.75555556       0.00000000       0.00000000   12244.33691406
2
Properties=species:S:1:pos:R:3:forces:R:3 energy=718.4134882355354 pbc="F F F"
U        0.00000000       0.00000000       0.00000000       0.00000000       0.00000000   -9826.89648438
U        0.00000000       0.00000000       0.81515152       0.00000000       0.00000000    9826.89648438
2
Properties=species:S:1:pos:R:3:forces:R:3 energy=276.56155971466717 pbc="F F F"
U        0.00000000       0.00000000       0.00000000       0.00000000       0.00000000   -4736.50830078
U        0.00000000       0.00000000       0.87474747       0.00000000       0.00000000    4736.50830078
2
Properties=species:S:1:pos:R:3:forces:R:3 energy=137.20680841919275 pbc="F F F"
U        0.00000000       0.00000000       0.00000000       0.00000000       0.00000000    -532.95617676
U        0.00000000       0.00000000       0.93434343       0.00000000       0.00000000     532.95617676
2
Properties=species:S:1:pos:R:3:forces:R:3 energy=122.05425906835036 pbc="F F F"
U        0.00000000       0.00000000       0.00000000       0.00000000       0.00000000      82.93141174
U        0.00000000       0.00000000       0.99393939       0.00000000       0.00000000     -82.93141174
2
Properties=species:S:1:pos:R:3:forces:R:3 energy=130.2596810356271 pbc="F F F"
U        0.00000000       0.00000000       0.00000000       0.00000000       0.00000000     118.50173950
U        0.00000000       0.00000000       1.05353535       0.00000000       0.00000000    -118.50173950
2
Properties=species:S:1:pos:R:3:forces:R:3 energy=131.07341770713333 pbc="F F F"
U        0.00000000       0.00000000       0.00000000       0.00000000       0.00000000    -130.10414124
U        0.00000000       0.00000000       1.11313131       0.00000000       0.00000000     130.10414124
2
Properties=species:S:1:pos:R:3:forces:R:3 energy=113.80748085230418 pbc="F F F"
U        0.00000000       0.00000000       0.00000000       0.00000000       0.00000000    -346.15676880
U        0.00000000       0.00000000       1.17272727       0.00000000       0.00000000     346.15676880
2
Properties=species:S:1:pos:R:3:forces:R:3 energy=93.92396002238519 pbc="F F F"
U        0.00000000       0.00000000       0.00000000       0.00000000       0.00000000    -308.70870972
U        0.00000000       0.00000000       1.23232323       0.00000000       0.00000000     308.70870972
2
Properties=species:S:1:pos:R:3:forces:R:3 energy=77.61791604872712 pbc="F F F"
U        0.00000000       0.00000000       0.00000000       0.00000000       0.00000000    -244.42355347
U        0.00000000       0.00000000       1.29191919       0.00000000       0.00000000     244.42355347
2
Properties=species:S:1:pos:R:3:forces:R:3 energy=63.80678369974053 pbc="F F F"
U        0.00000000       0.00000000       0.00000000       0.00000000       0.00000000    -224.15106201
U        0.00000000       0.00000000       1.35151515       0.00000000       0.00000000     224.15106201
2
Properties=species:S:1:pos:R:3:forces:R:3 energy=50.737763050988875 pbc="F F F"
U        0.00000000       0.00000000       0.00000000       0.00000000       0.00000000    -213.95198059
U        0.00000000       0.00000000       1.41111111       0.00000000       0.00000000     213.95198059
2
Properties=species:S:1:pos:R:3:forces:R:3 energy=38.39515292256845 pbc="F F F"
U        0.00000000       0.00000000       0.00000000       0.00000000       0.00000000    -199.37312317
U        0.00000000       0.00000000       1.47070707       0.00000000       0.00000000     199.37312317
2
Properties=species:S:1:pos:R:3:forces:R:3 energy=27.105256948590373 pbc="F F F"
U        0.00000000       0.00000000       0.00000000       0.00000000       0.00000000    -178.30564880
U        0.00000000       0.00000000       1.53030303       0.00000000       0.00000000     178.30564880
2
Properties=species:S:1:pos:R:3:forces:R:3 energy=17.251570535892935 pbc="F F F"
U        0.00000000       0.00000000       0.00000000       0.00000000       0.00000000    -151.93634033
U        0.00000000       0.00000000       1.58989899       0.00000000       0.00000000     151.93634033
2
Properties=species:S:1:pos:R:3:forces:R:3 energy=9.000191528207957 pbc="F F F"
U        0.00000000       0.00000000       0.00000000       0.00000000       0.00000000    -125.16085815
U        0.00000000       0.00000000       1.64949495       0.00000000       0.00000000     125.16085815
2
Properties=species:S:1:pos:R:3:forces:R:3 energy=2.3045674448524247 pbc="F F F"
U        0.00000000       0.00000000       0.00000000       0.00000000       0.00000000     -99.82196808
U        0.00000000       0.00000000       1.70909091       0.00000000       0.00000000      99.82196808
2
Properties=species:S:1:pos:R:3:forces:R:3 energy=-2.939479501259652 pbc="F F F"
U        0.00000000       0.00000000       0.00000000       0.00000000       0.00000000     -76.58797455
U        0.00000000       0.00000000       1.76868687       0.00000000       0.00000000      76.58797455
2
Properties=species:S:1:pos:R:3:forces:R:3 energy=-6.881489945215296 pbc="F F F"
U        0.00000000       0.00000000       0.00000000       0.00000000       0.00000000     -56.23212051
U        0.00000000       0.00000000       1.82828283       0.00000000       0.00000000      56.23212051
2
Properties=species:S:1:pos:R:3:forces:R:3 energy=-9.710290219905433 pbc="F F F"
U        0.00000000       0.00000000       0.00000000       0.00000000       0.00000000     -39.32529831
U        0.00000000       0.00000000       1.88787879       0.00000000       0.00000000      39.32529831
2
Properties=species:S:1:pos:R:3:forces:R:3 energy=-11.647636943667479 pbc="F F F"
U        0.00000000       0.00000000       0.00000000       0.00000000       0.00000000     -26.35201645
U        0.00000000       0.00000000       1.94747475       0.00000000       0.00000000      26.35201645
2
Properties=species:S:1:pos:R:3:forces:R:3 energy=-12.922249059528346 pbc="F F F"
U        0.00000000       0.00000000       0.00000000       0.00000000       0.00000000     -16.93091202
U        0.00000000       0.00000000       2.00707071       0.00000000       0.00000000      16.93091202
2
Properties=species:S:1:pos:R:3:forces:R:3 energy=-13.715939414729359 pbc="F F F"
U        0.00000000       0.00000000       0.00000000       0.00000000       0.00000000     -10.05319405
U        0.00000000       0.00000000       2.06666667       0.00000000       0.00000000      10.05319405
2
Properties=species:S:1:pos:R:3:forces:R:3 energy=-14.155568260394459 pbc="F F F"
U        0.00000000       0.00000000       0.00000000       0.00000000       0.00000000      -4.95133305
U        0.00000000       0.00000000       2.12626263       0.00000000       0.00000000       4.95133305
2
Properties=species:S:1:pos:R:3:forces:R:3 energy=-14.332442767761648 pbc="F F F"
U        0.00000000       0.00000000       0.00000000       0.00000000       0.00000000      -1.18291008
U        0.00000000       0.00000000       2.18585859       0.00000000       0.00000000       1.18291008
2
Properties=species:S:1:pos:R:3:forces:R:3 energy=-14.318495247985537 pbc="F F F"
U        0.00000000       0.00000000       0.00000000       0.00000000       0.00000000       1.47739124
U        0.00000000       0.00000000       2.24545455       0.00000000       0.00000000      -1.47739124
2
Properties=species:S:1:pos:R:3:forces:R:3 energy=-14.176093549145051 pbc="F F F"
U        0.00000000       0.00000000       0.00000000       0.00000000       0.00000000       3.14427876
U        0.00000000       0.00000000       2.30505051       0.00000000       0.00000000      -3.14427876
2
Properties=species:S:1:pos:R:3:forces:R:3 energy=-13.961094734075857 pbc="F F F"
U        0.00000000       0.00000000       0.00000000       0.00000000       0.00000000       3.93994403
U        0.00000000       0.00000000       2.36464646       0.00000000       0.00000000      -3.93994403
2
Properties=species:S:1:pos:R:3:forces:R:3 energy=-13.719785680492041 pbc="F F F"
U        0.00000000       0.00000000       0.00000000       0.00000000       0.00000000       4.06809855
U        0.00000000       0.00000000       2.42424242       0.00000000       0.00000000      -4.06809855
2
Properties=species:S:1:pos:R:3:forces:R:3 energy=-13.484308305290313 pbc="F F F"
U        0.00000000       0.00000000       0.00000000       0.00000000       0.00000000       3.78755784
U        0.00000000       0.00000000       2.48383838       0.00000000       0.00000000      -3.78755784
2
Properties=species:S:1:pos:R:3:forces:R:3 energy=-13.271757401317961 pbc="F F F"
U        0.00000000       0.00000000       0.00000000       0.00000000       0.00000000       3.33232689
U        0.00000000       0.00000000       2.54343434       0.00000000       0.00000000      -3.33232689
2
Properties=species:S:1:pos:R:3:forces:R:3 energy=-13.087284771245045 pbc="F F F"
U        0.00000000       0.00000000       0.00000000       0.00000000       0.00000000       2.86653447
U        0.00000000       0.00000000       2.60303030       0.00000000       0.00000000      -2.86653447
2
Properties=species:S:1:pos:R:3:forces:R:3 energy=-12.928409936844837 pbc="F F F"
U        0.00000000       0.00000000       0.00000000       0.00000000       0.00000000       2.48364449
U        0.00000000       0.00000000       2.66262626       0.00000000       0.00000000      -2.48364449
2
Properties=species:S:1:pos:R:3:forces:R:3 energy=-12.788768129742468 pbc="F F F"
U        0.00000000       0.00000000       0.00000000       0.00000000       0.00000000       2.22471356
U        0.00000000       0.00000000       2.72222222       0.00000000       0.00000000      -2.22471356
2
Properties=species:S:1:pos:R:3:forces:R:3 energy=-12.66062091040879 pbc="F F F"
U        0.00000000       0.00000000       0.00000000       0.00000000       0.00000000       2.09687066
U        0.00000000       0.00000000       2.78181818       0.00000000       0.00000000      -2.09687066
2
Properties=species:S:1:pos:R:3:forces:R:3 energy=-12.536620196220984 pbc="F F F"
U        0.00000000       0.00000000       0.00000000       0.00000000       0.00000000       2.07987523
U        0.00000000       0.00000000       2.84141414       0.00000000       0.00000000      -2.07987523
2
Properties=species:S:1:pos:R:3:forces:R:3 energy=-12.411359994273345 pbc="F F F"
U        0.00000000       0.00000000       0.00000000       0.00000000       0.00000000       2.13086128
U        0.00000000       0.00000000       2.90101010       0.00000000       0.00000000      -2.13086128
2
Properties=species:S:1:pos:R:3:forces:R:3 energy=-12.282308150528026 pbc="F F F"
U        0.00000000       0.00000000       0.00000000       0.00000000       0.00000000       2.19895816
U        0.00000000       0.00000000       2.96060606       0.00000000       0.00000000      -2.19895816
2
Properties=species:S:1:pos:R:3:forces:R:3 energy=-12.149751002018485 pbc="F F F"
U        0.00000000       0.00000000       0.00000000       0.00000000       0.00000000       2.24311972
U        0.00000000       0.00000000       3.02020202       0.00000000       0.00000000      -2.24311972
2
Properties=species:S:1:pos:R:3:forces:R:3 energy=-12.015859485611578 pbc="F F F"
U        0.00000000       0.00000000       0.00000000       0.00000000       0.00000000       2.24190402
U        0.00000000       0.00000000       3.07979798       0.00000000       0.00000000      -2.24190402
2
Properties=species:S:1:pos:R:3:forces:R:3 energy=-11.883497884744761 pbc="F F F"
U        0.00000000       0.00000000       0.00000000       0.00000000       0.00000000       2.19253612
U        0.00000000       0.00000000       3.13939394       0.00000000       0.00000000      -2.19253612
2
Properties=species:S:1:pos:R:3:forces:R:3 energy=-11.755308698219968 pbc="F F F"
U        0.00000000       0.00000000       0.00000000       0.00000000       0.00000000       2.10393453
U        0.00000000       0.00000000       3.19898990       0.00000000       0.00000000      -2.10393453
2
Properties=species:S:1:pos:R:3:forces:R:3 energy=-11.63323861005552 pbc="F F F"
U        0.00000000       0.00000000       0.00000000       0.00000000       0.00000000       1.98944438
U        0.00000000       0.00000000       3.25858586       0.00000000       0.00000000      -1.98944438
2
Properties=species:S:1:pos:R:3:forces:R:3 energy=-11.518436690416435 pbc="F F F"
U        0.00000000       0.00000000       0.00000000       0.00000000       0.00000000       1.86213708
U        0.00000000       0.00000000       3.31818182       0.00000000       0.00000000      -1.86213708
2
Properties=species:S:1:pos:R:3:forces:R:3 energy=-11.411327904564516 pbc="F F F"
U        0.00000000       0.00000000       0.00000000       0.00000000       0.00000000       1.73272324
U        0.00000000       0.00000000       3.37777778       0.00000000       0.00000000      -1.73272324
2
Properties=species:S:1:pos:R:3:forces:R:3 energy=-11.31179568280531 pbc="F F F"
U        0.00000000       0.00000000       0.00000000       0.00000000       0.00000000       1.60896015
U        0.00000000       0.00000000       3.43737374       0.00000000       0.00000000      -1.60896015
2
Properties=species:S:1:pos:R:3:forces:R:3 energy=-11.219344453930807 pbc="F F F"
U        0.00000000       0.00000000       0.00000000       0.00000000       0.00000000       1.49559689
U        0.00000000       0.00000000       3.49696970       0.00000000       0.00000000      -1.49559689
2
Properties=species:S:1:pos:R:3:forces:R:3 energy=-11.13328441395466 pbc="F F F"
U        0.00000000       0.00000000       0.00000000       0.00000000       0.00000000       1.39457917
U        0.00000000       0.00000000       3.55656566       0.00000000       0.00000000      -1.39457917
2
Properties=species:S:1:pos:R:3:forces:R:3 energy=-11.052883391739373 pbc="F F F"
U        0.00000000       0.00000000       0.00000000       0.00000000       0.00000000       1.30550957
U        0.00000000       0.00000000       3.61616162       0.00000000       0.00000000      -1.30550957
2
Properties=species:S:1:pos:R:3:forces:R:3 energy=-10.977481758751932 pbc="F F F"
U        0.00000000       0.00000000       0.00000000       0.00000000       0.00000000       1.22642100
U        0.00000000       0.00000000       3.67575758       0.00000000       0.00000000      -1.22642100
2
Properties=species:S:1:pos:R:3:forces:R:3 energy=-10.906557139533158 pbc="F F F"
U        0.00000000       0.00000000       0.00000000       0.00000000       0.00000000       1.15475249
U        0.00000000       0.00000000       3.73535354       0.00000000       0.00000000      -1.15475249
2
Properties=species:S:1:pos:R:3:forces:R:3 energy=-10.83974171721957 pbc="F F F"
U        0.00000000       0.00000000       0.00000000       0.00000000       0.00000000       1.08823562
U        0.00000000       0.00000000       3.79494949       0.00000000       0.00000000      -1.08823562
2
Properties=species:S:1:pos:R:3:forces:R:3 energy=-10.776775212062251 pbc="F F F"
U        0.00000000       0.00000000       0.00000000       0.00000000       0.00000000       1.02539718
U        0.00000000       0.00000000       3.85454545       0.00000000       0.00000000      -1.02539718
2
Properties=species:S:1:pos:R:3:forces:R:3 energy=-10.717461354533075 pbc="F F F"
U        0.00000000       0.00000000       0.00000000       0.00000000       0.00000000       0.96567655
U        0.00000000       0.00000000       3.91414141       0.00000000       0.00000000      -0.96567655
2
Properties=species:S:1:pos:R:3:forces:R:3 energy=-10.661609673177551 pbc="F F F"
U        0.00000000       0.00000000       0.00000000       0.00000000       0.00000000       0.90921193
U        0.00000000       0.00000000       3.97373737       0.00000000       0.00000000      -0.90921193
2
Properties=species:S:1:pos:R:3:forces:R:3 energy=-10.609015334405639 pbc="F F F"
U        0.00000000       0.00000000       0.00000000       0.00000000       0.00000000       0.85650450
U        0.00000000       0.00000000       4.03333333       0.00000000       0.00000000      -0.85650450
2
Properties=species:S:1:pos:R:3:forces:R:3 energy=-10.559436412699272 pbc="F F F"
U        0.00000000       0.00000000       0.00000000       0.00000000       0.00000000       0.80806810
U        0.00000000       0.00000000       4.09292929       0.00000000       0.00000000      -0.80806810
2
Properties=species:S:1:pos:R:3:forces:R:3 energy=-10.512609155737053 pbc="F F F"
U        0.00000000       0.00000000       0.00000000       0.00000000       0.00000000       0.76422423
U        0.00000000       0.00000000       4.15252525       0.00000000       0.00000000      -0.76422423
2
Properties=species:S:1:pos:R:3:forces:R:3 energy=-10.468255683480887 pbc="F F F"
U        0.00000000       0.00000000       0.00000000       0.00000000       0.00000000       0.72498995
U        0.00000000       0.00000000       4.21212121       0.00000000       0.00000000      -0.72498995
2
Properties=species:S:1:pos:R:3:forces:R:3 energy=-10.426110678385536 pbc="F F F"
U        0.00000000       0.00000000       0.00000000       0.00000000       0.00000000       0.69003367
U        0.00000000       0.00000000       4.27171717       0.00000000       0.00000000      -0.69003367
2
Properties=species:S:1:pos:R:3:forces:R:3 energy=-10.385936745558004 pbc="F F F"
U        0.00000000       0.00000000       0.00000000       0.00000000       0.00000000       0.65871584
U        0.00000000       0.00000000       4.33131313       0.00000000       0.00000000      -0.65871584
2
Properties=species:S:1:pos:R:3:forces:R:3 energy=-10.347542526233894 pbc="F F F"
U        0.00000000       0.00000000       0.00000000       0.00000000       0.00000000       0.63013870
U        0.00000000       0.00000000       4.39090909       0.00000000       0.00000000      -0.63013870
2
Properties=species:S:1:pos:R:3:forces:R:3 energy=-10.310795177906908 pbc="F F F"
U        0.00000000       0.00000000       0.00000000       0.00000000       0.00000000       0.60325438
U        0.00000000       0.00000000       4.45050505       0.00000000       0.00000000      -0.60325438
2
Properties=species:S:1:pos:R:3:forces:R:3 energy=-10.275627107069846 pbc="F F F"
U        0.00000000       0.00000000       0.00000000       0.00000000       0.00000000       0.57700813
U        0.00000000       0.00000000       4.51010101       0.00000000       0.00000000      -0.57700813
2
Properties=species:S:1:pos:R:3:forces:R:3 energy=-10.242025447118921 pbc="F F F"
U        0.00000000       0.00000000       0.00000000       0.00000000       0.00000000       0.55047941
U        0.00000000       0.00000000       4.56969697       0.00000000       0.00000000      -0.55047941
2
Properties=species:S:1:pos:R:3:forces:R:3 energy=-10.210031231392314 pbc="F F F"
U        0.00000000       0.00000000       0.00000000       0.00000000       0.00000000       0.52304971
U        0.00000000       0.00000000       4.62929293       0.00000000       0.00000000      -0.52304971
2
Properties=species:S:1:pos:R:3:forces:R:3 energy=-10.179706993586 pbc="F F F"
U        0.00000000       0.00000000       0.00000000       0.00000000       0.00000000       0.49446663
U        0.00000000       0.00000000       4.68888889       0.00000000       0.00000000      -0.49446663
2
Properties=species:S:1:pos:R:3:forces:R:3 energy=-10.151115799590078 pbc="F F F"
U        0.00000000       0.00000000       0.00000000       0.00000000       0.00000000       0.46486932
U        0.00000000       0.00000000       4.74848485       0.00000000       0.00000000      -0.46486932
2
Properties=species:S:1:pos:R:3:forces:R:3 energy=-10.124308799037495 pbc="F F F"
U        0.00000000       0.00000000       0.00000000       0.00000000       0.00000000       0.43473834
U        0.00000000       0.00000000       4.80808081       0.00000000       0.00000000      -0.43473834
2
Properties=species:S:1:pos:R:3:forces:R:3 energy=-10.099293956792232 pbc="F F F"
U        0.00000000       0.00000000       0.00000000       0.00000000       0.00000000       0.40480104
U        0.00000000       0.00000000       4.86767677       0.00000000       0.00000000      -0.40480104
2
Properties=species:S:1:pos:R:3:forces:R:3 energy=-10.076037814578111 pbc="F F F"
U        0.00000000       0.00000000       0.00000000       0.00000000       0.00000000       0.37591541
U        0.00000000       0.00000000       4.92727273       0.00000000       0.00000000      -0.37591541
2
Properties=species:S:1:pos:R:3:forces:R:3 energy=-10.054450295546179 pbc="F F F"
U        0.00000000       0.00000000       0.00000000       0.00000000       0.00000000       0.34893194
U        0.00000000       0.00000000       4.98686869       0.00000000       0.00000000      -0.34893194
2
Properties=species:S:1:pos:R:3:forces:R:3 energy=-10.034398024036912 pbc="F F F"
U        0.00000000       0.00000000       0.00000000       0.00000000       0.00000000       0.32456604
U        0.00000000       0.00000000       5.04646465       0.00000000       0.00000000      -0.32456604
2
Properties=species:S:1:pos:R:3:forces:R:3 energy=-10.01570711057544 pbc="F F F"
U        0.00000000       0.00000000       0.00000000       0.00000000       0.00000000       0.30317315
U        0.00000000       0.00000000       5.10606061       0.00000000       0.00000000      -0.30317315
2
Properties=species:S:1:pos:R:3:forces:R:3 energy=-9.99820425490181 pbc="F F F"
U        0.00000000       0.00000000       0.00000000       0.00000000       0.00000000       0.28451920
U        0.00000000       0.00000000       5.16565657       0.00000000       0.00000000      -0.28451920
2
Properties=species:S:1:pos:R:3:forces:R:3 energy=-9.981759471245896 pbc="F F F"
U        0.00000000       0.00000000       0.00000000       0.00000000       0.00000000       0.26748312
U        0.00000000       0.00000000       5.22525253       0.00000000       0.00000000      -0.26748312
2
Properties=species:S:1:pos:R:3:forces:R:3 energy=-9.96633566672057 pbc="F F F"
U        0.00000000       0.00000000       0.00000000       0.00000000       0.00000000       0.24982822
U        0.00000000       0.00000000       5.28484848       0.00000000       0.00000000      -0.24982822
2
Properties=species:S:1:pos:R:3:forces:R:3 energy=-9.95204680911935 pbc="F F F"
U        0.00000000       0.00000000       0.00000000       0.00000000       0.00000000       0.22904631
U        0.00000000       0.00000000       5.34444444       0.00000000       0.00000000      -0.22904631
2
Properties=species:S:1:pos:R:3:forces:R:3 energy=-9.939077621868856 pbc="F F F"
U        0.00000000       0.00000000       0.00000000       0.00000000       0.00000000       0.20637375
U        0.00000000       0.00000000       5.40404040       0.00000000       0.00000000      -0.20637375
2
Properties=species:S:1:pos:R:3:forces:R:3 energy=-9.927324055147164 pbc="F F F"
U        0.00000000       0.00000000       0.00000000       0.00000000       0.00000000       0.18961337
U        0.00000000       0.00000000       5.46363636       0.00000000       0.00000000      -0.18961337
2
Properties=species:S:1:pos:R:3:forces:R:3 energy=-9.91633308402463 pbc="F F F"
U        0.00000000       0.00000000       0.00000000       0.00000000       0.00000000       0.17959625
U        0.00000000       0.00000000       5.52323232       0.00000000       0.00000000      -0.17959625
2
Properties=species:S:1:pos:R:3:forces:R:3 energy=-9.906044635403841 pbc="F F F"
U        0.00000000       0.00000000       0.00000000       0.00000000       0.00000000       0.16398083
U        0.00000000       0.00000000       5.58282828       0.00000000       0.00000000      -0.16398083
2
Properties=species:S:1:pos:R:3:forces:R:3 energy=-9.896914383923226 pbc="F F F"
U        0.00000000       0.00000000       0.00000000       0.00000000       0.00000000       0.14255768
U        0.00000000       0.00000000       5.64242424       0.00000000       0.00000000      -0.14255768
2
Properties=species:S:1:pos:R:3:forces:R:3 energy=-9.888833314984305 pbc="F F F"
U        0.00000000       0.00000000       0.00000000       0.00000000       0.00000000       0.13210365
U        0.00000000       0.00000000       5.70202020       0.00000000       0.00000000      -0.13210365
2
Properties=species:S:1:pos:R:3:forces:R:3 energy=-9.8806746154098 pbc="F F F"
U        0.00000000       0.00000000       0.00000000       0.00000000       0.00000000       0.14481913
U        0.00000000       0.00000000       5.76161616       0.00000000       0.00000000      -0.14481913
2
Properties=species:S:1:pos:R:3:forces:R:3 energy=-9.871721152832896 pbc="F F F"
U        0.00000000       0.00000000       0.00000000       0.00000000       0.00000000       0.14961249
U        0.00000000       0.00000000       5.82121212       0.00000000       0.00000000      -0.14961249
2
Properties=species:S:1:pos:R:3:forces:R:3 energy=-9.863788462431513 pbc="F F F"
U        0.00000000       0.00000000       0.00000000       0.00000000       0.00000000       0.11066285
U        0.00000000       0.00000000       5.88080808       0.00000000       0.00000000      -0.11066285
2
Properties=species:S:1:pos:R:3:forces:R:3 energy=-9.858825109111084 pbc="F F F"
U        0.00000000       0.00000000       0.00000000       0.00000000       0.00000000       0.05658779
U        0.00000000       0.00000000       5.94040404       0.00000000       0.00000000      -0.05658779
2
Properties=species:S:1:pos:R:3:forces:R:3 energy=-9.85639219281055 pbc="F F F"
U        0.00000000       0.00000000       0.00000000       0.00000000       0.00000000       0.03283592
U        0.00000000       0.00000000       6.00000000       0.00000000       0.00000000      -0.03283592
