2
Properties=species:S:1:pos:R:3:forces:R:3 energy=80031.1215158577 pbc="F F F"
W        0.00000000       0.00000000       0.00000000       0.00000000       0.00000000 -1963220.75000000
W        0.00000000       0.00000000       0.10000000       0.00000000       0.00000000 1963220.75000000
2
Properties=species:S:1:pos:R:3:forces:R:3 energy=23662.418390857703 pbc="F F F"
W        0.00000000       0.00000000       0.00000000       0.00000000       0.00000000 -404156.62500000
W        0.00000000       0.00000000       0.15959596       0.00000000       0.00000000  404156.62500000
2
Properties=species:S:1:pos:R:3:forces:R:3 energy=9963.035578357702 pbc="F F F"
W        0.00000000       0.00000000       0.00000000       0.00000000       0.00000000 -121148.05468750
W        0.00000000       0.00000000       0.21919192       0.00000000       0.00000000  121148.05468750
2
Properties=species:S:1:pos:R:3:forces:R:3 energy=5465.5839182014515 pbc="F F F"
W        0.00000000       0.00000000       0.00000000       0.00000000       0.00000000  -44270.07421875
W        0.00000000       0.00000000       0.27878788       0.00000000       0.00000000   44270.07421875
2
Properties=species:S:1:pos:R:3:forces:R:3 energy=3735.4249826577443 pbc="F F F"
W        0.00000000       0.00000000       0.00000000       0.00000000       0.00000000  -18053.84570312
W        0.00000000       0.00000000       0.33838384       0.00000000       0.00000000   18053.84570312
2
Properties=species:S:1:pos:R:3:forces:R:3 energy=3007.3388010171193 pbc="F F F"
W        0.00000000       0.00000000       0.00000000       0.00000000       0.00000000   -7903.25830078
W        0.00000000       0.00000000       0.39797980       0.00000000       0.00000000    7903.25830078
2
Properties=species:S:1:pos:R:3:forces:R:3 energy=2674.1295725078303 pbc="F F F"
W        0.00000000       0.00000000       0.00000000       0.00000000       0.00000000   -3944.90136719
W        0.00000000       0.00000000       0.45757576       0.00000000       0.00000000    3944.90136719
2
Properties=species:S:1:pos:R:3:forces:R:3 energy=2478.5712229079586 pbc="F F F"
W        0.00000000       0.00000000       0.00000000       0.00000000       0.00000000   -2990.95312500
W        0.00000000       0.00000000       0.51717172       0.00000000       0.00000000    2990.95312500
2
Properties=species:S:1:pos:R:3:forces:R:3 energy=2282.801691673798 pbc="F F F"
W        0.00000000       0.00000000       0.00000000       0.00000000       0.00000000   -3794.19165039
W        0.00000000       0.00000000       0.57676768       0.00000000       0.00000000    3794.19165039
2
Properties=species:S:1:pos:R:3:forces:R:3 energy=2011.0953928710153 pbc="F F F"
W        0.00000000       0.00000000       0.00000000       0.00000000       0.00000000   -5354.22851562
W        0.00000000       0.00000000       0.63636364       0.00000000       0.00000000    5354.22851562
2
Properties=species:S:1:pos:R:3:forces:R:3 energy=1653.0321604934898 pbc="F F F"
W        0.00000000       0.00000000       0.00000000       0.00000000       0.00000000   -6502.18798828
W        0.00000000       0.00000000       0.69595960       0.00000000       0.00000000    6502.18798828
2
Properties=species:S:1:pos:R:3:forces:R:3 energy=1259.5681713053693 pbc="F F F"
W        0.00000000       0.00000000       0.00000000       0.00000000       0.00000000   -7126.17919922
W        0.00000000       0.00000000       0.75555556       0.00000000       0.00000000    7126.17919922
2
Properties=species:S:1:pos:R:3:forces:R:3 energy=884.6305493364272 pbc="F F F"
W        0.00000000       0.00000000       0.00000000       0.00000000       0.00000000   -5335.43212891
W        0.00000000       0.00000000       0.81515152       0.00000000       0.00000000    5335.43212891
2
Properties=species:S:1:pos:R:3:forces:R:3 energy=627.0500441110532 pbc="F F F"
W        0.00000000       0.00000000       0.00000000       0.00000000       0.00000000   -3320.31445312
W        0.00000000       0.00000000       0.87474747       0.00000000       0.00000000    3320.31445312
2
Properties=species:S:1:pos:R:3:forces:R:3 energy=472.3602860193483 pbc="F F F"
W        0.00000000       0.00000000       0.00000000       0.00000000       0.00000000   -2227.19262695
W        0.00000000       0.00000000       0.93434343       0.00000000       0.00000000    2227.19262695
2
Properties=species:S:1:pos:R:3:forces:R:3 energy=349.65648991773355 pbc="F F F"
W        0.00000000       0.00000000       0.00000000       0.00000000       0.00000000   -1819.37487793
W        0.00000000       0.00000000       0.99393939       0.00000000       0.00000000    1819.37487793
2
Properties=species:S:1:pos:R:3:forces:R:3 energy=254.07241437647346 pbc="F F F"
W        0.00000000       0.00000000       0.00000000       0.00000000       0.00000000   -1411.56872559
W        0.00000000       0.00000000       1.05353535       0.00000000       0.00000000    1411.56872559
2
Properties=species:S:1:pos:R:3:forces:R:3 energy=180.69268467138693 pbc="F F F"
W        0.00000000       0.00000000       0.00000000       0.00000000       0.00000000   -1050.16345215
W        0.00000000       0.00000000       1.11313131       0.00000000       0.00000000    1050.16345215
2
Properties=species:S:1:pos:R:3:forces:R:3 energy=127.69320415446464 pbc="F F F"
W        0.00000000       0.00000000       0.00000000       0.00000000       0.00000000    -746.67242432
W        0.00000000       0.00000000       1.17272727       0.00000000       0.00000000     746.67242432
2
Properties=species:S:1:pos:R:3:forces:R:3 energy=89.5297681518064 pbc="F F F"
W        0.00000000       0.00000000       0.00000000       0.00000000       0.00000000    -549.63354492
W        0.00000000       0.00000000       1.23232323       0.00000000       0.00000000     549.63354492
2
Properties=species:S:1:pos:R:3:forces:R:3 energy=60.92826401584917 pbc="F F F"
W        0.00000000       0.00000000       0.00000000       0.00000000       0.00000000    -415.83810425
W        0.00000000       0.00000000       1.29191919       0.00000000       0.00000000     415.83810425
2
Properties=species:S:1:pos:R:3:forces:R:3 energy=39.50288857145405 pbc="F F F"
W        0.00000000       0.00000000       0.00000000       0.00000000       0.00000000    -307.00354004
W        0.00000000       0.00000000       1.35151515       0.00000000       0.00000000     307.00354004
2
Properties=species:S:1:pos:R:3:forces:R:3 energy=23.752356338502423 pbc="F F F"
W        0.00000000       0.00000000       0.00000000       0.00000000       0.00000000    -225.89617920
W        0.00000000       0.00000000       1.41111111       0.00000000       0.00000000     225.89617920
2
Properties=species:S:1:pos:R:3:forces:R:3 energy=12.306870636924506 pbc="F F F"
W        0.00000000       0.00000000       0.00000000       0.00000000       0.00000000    -159.65866089
W        0.00000000       0.00000000       1.47070707       0.00000000       0.00000000     159.65866089
2
Properties=species:S:1:pos:R:3:forces:R:3 energy=4.458823329290075 pbc="F F F"
W        0.00000000       0.00000000       0.00000000       0.00000000       0.00000000    -106.65040588
W        0.00000000       0.00000000       1.53030303       0.00000000       0.00000000     106.65040588
2
Properties=species:S:1:pos:R:3:forces:R:3 energy=-0.7628691209149845 pbc="F F F"
W        0.00000000       0.00000000       0.00000000       0.00000000       0.00000000     -71.30927277
W        0.00000000       0.00000000       1.58989899       0.00000000       0.00000000      71.30927277
2
Properties=species:S:1:pos:R:3:forces:R:3 energy=-4.307271340750443 pbc="F F F"
W        0.00000000       0.00000000       0.00000000       0.00000000       0.00000000     -49.40044785
W        0.00000000       0.00000000       1.64949495       0.00000000       0.00000000      49.40044785
2
Properties=species:S:1:pos:R:3:forces:R:3 energy=-6.816154510528269 pbc="F F F"
W        0.00000000       0.00000000       0.00000000       0.00000000       0.00000000     -35.86536407
W        0.00000000       0.00000000       1.70909091       0.00000000       0.00000000      35.86536407
2
Properties=species:S:1:pos:R:3:forces:R:3 energy=-8.677837544381081 pbc="F F F"
W        0.00000000       0.00000000       0.00000000       0.00000000       0.00000000     -27.17216492
W        0.00000000       0.00000000       1.76868687       0.00000000       0.00000000      27.17216492
2
Properties=species:S:1:pos:R:3:forces:R:3 energy=-10.09956896532627 pbc="F F F"
W        0.00000000       0.00000000       0.00000000       0.00000000       0.00000000     -20.78342056
W        0.00000000       0.00000000       1.82828283       0.00000000       0.00000000      20.78342056
2
Properties=species:S:1:pos:R:3:forces:R:3 energy=-11.177092353494553 pbc="F F F"
W        0.00000000       0.00000000       0.00000000       0.00000000       0.00000000     -15.53485966
W        0.00000000       0.00000000       1.88787879       0.00000000       0.00000000      15.53485966
2
Properties=species:S:1:pos:R:3:forces:R:3 energy=-11.968736318419033 pbc="F F F"
W        0.00000000       0.00000000       0.00000000       0.00000000       0.00000000     -11.16950703
W        0.00000000       0.00000000       1.94747475       0.00000000       0.00000000      11.16950703
2
Properties=species:S:1:pos:R:3:forces:R:3 energy=-12.523292875356397 pbc="F F F"
W        0.00000000       0.00000000       0.00000000       0.00000000       0.00000000      -7.55251026
W        0.00000000       0.00000000       2.00707071       0.00000000       0.00000000       7.55251026
2
Properties=species:S:1:pos:R:3:forces:R:3 energy=-12.880653679104478 pbc="F F F"
W        0.00000000       0.00000000       0.00000000       0.00000000       0.00000000      -4.52635050
W        0.00000000       0.00000000       2.06666667       0.00000000       0.00000000       4.52635050
2
Properties=species:S:1:pos:R:3:forces:R:3 energy=-13.071918052129261 pbc="F F F"
W        0.00000000       0.00000000       0.00000000       0.00000000       0.00000000      -1.96185470
W        0.00000000       0.00000000       2.12626263       0.00000000       0.00000000       1.96185470
2
Properties=species:S:1:pos:R:3:forces:R:3 energy=-13.122442204472277 pbc="F F F"
W        0.00000000       0.00000000       0.00000000       0.00000000       0.00000000       0.20002846
W        0.00000000       0.00000000       2.18585859       0.00000000       0.00000000      -0.20002846
2
Properties=species:S:1:pos:R:3:forces:R:3 energy=-13.056156067390388 pbc="F F F"
W        0.00000000       0.00000000       0.00000000       0.00000000       0.00000000       1.95488501
W        0.00000000       0.00000000       2.24545455       0.00000000       0.00000000      -1.95488501
2
Properties=species:S:1:pos:R:3:forces:R:3 energy=-12.897871064664402 pbc="F F F"
W        0.00000000       0.00000000       0.00000000       0.00000000       0.00000000       3.28601933
W        0.00000000       0.00000000       2.30505051       0.00000000       0.00000000      -3.28601933
2
Properties=species:S:1:pos:R:3:forces:R:3 energy=-12.672801478806155 pbc="F F F"
W        0.00000000       0.00000000       0.00000000       0.00000000       0.00000000       4.19984436
W        0.00000000       0.00000000       2.36464646       0.00000000       0.00000000      -4.19984436
2
Properties=species:S:1:pos:R:3:forces:R:3 energy=-12.404899021767976 pbc="F F F"
W        0.00000000       0.00000000       0.00000000       0.00000000       0.00000000       4.73087883
W        0.00000000       0.00000000       2.42424242       0.00000000       0.00000000      -4.73087883
2
Properties=species:S:1:pos:R:3:forces:R:3 energy=-12.115449317468874 pbc="F F F"
W        0.00000000       0.00000000       0.00000000       0.00000000       0.00000000       4.93350792
W        0.00000000       0.00000000       2.48383838       0.00000000       0.00000000      -4.93350792
2
Properties=species:S:1:pos:R:3:forces:R:3 energy=-11.822091638159325 pbc="F F F"
W        0.00000000       0.00000000       0.00000000       0.00000000       0.00000000       4.87319231
W        0.00000000       0.00000000       2.54343434       0.00000000       0.00000000      -4.87319231
2
Properties=species:S:1:pos:R:3:forces:R:3 energy=-11.538439369914332 pbc="F F F"
W        0.00000000       0.00000000       0.00000000       0.00000000       0.00000000       4.61967897
W        0.00000000       0.00000000       2.60303030       0.00000000       0.00000000      -4.61967897
2
Properties=species:S:1:pos:R:3:forces:R:3 energy=-11.273932211481931 pbc="F F F"
W        0.00000000       0.00000000       0.00000000       0.00000000       0.00000000       4.24169588
W        0.00000000       0.00000000       2.66262626       0.00000000       0.00000000      -4.24169588
2
Properties=species:S:1:pos:R:3:forces:R:3 energy=-11.034081591700346 pbc="F F F"
W        0.00000000       0.00000000       0.00000000       0.00000000       0.00000000       3.80206800
W        0.00000000       0.00000000       2.72222222       0.00000000       0.00000000      -3.80206800
2
Properties=species:S:1:pos:R:3:forces:R:3 energy=-10.820929075627557 pbc="F F F"
W        0.00000000       0.00000000       0.00000000       0.00000000       0.00000000       3.35338330
W        0.00000000       0.00000000       2.78181818       0.00000000       0.00000000      -3.35338330
2
Properties=species:S:1:pos:R:3:forces:R:3 energy=-10.633768488524233 pbc="F F F"
W        0.00000000       0.00000000       0.00000000       0.00000000       0.00000000       2.93525100
W        0.00000000       0.00000000       2.84141414       0.00000000       0.00000000      -2.93525100
2
Properties=species:S:1:pos:R:3:forces:R:3 energy=-10.469949785531586 pbc="F F F"
W        0.00000000       0.00000000       0.00000000       0.00000000       0.00000000       2.57304883
W        0.00000000       0.00000000       2.90101010       0.00000000       0.00000000      -2.57304883
2
Properties=species:S:1:pos:R:3:forces:R:3 energy=-10.325771610314032 pbc="F F F"
W        0.00000000       0.00000000       0.00000000       0.00000000       0.00000000       2.27619743
W        0.00000000       0.00000000       2.96060606       0.00000000       0.00000000      -2.27619743
2
Properties=species:S:1:pos:R:3:forces:R:3 energy=-10.19749651652653 pbc="F F F"
W        0.00000000       0.00000000       0.00000000       0.00000000       0.00000000       2.03672290
W        0.00000000       0.00000000       3.02020202       0.00000000       0.00000000      -2.03672290
2
Properties=species:S:1:pos:R:3:forces:R:3 energy=-10.082252391677995 pbc="F F F"
W        0.00000000       0.00000000       0.00000000       0.00000000       0.00000000       1.83553314
W        0.00000000       0.00000000       3.07979798       0.00000000       0.00000000      -1.83553314
2
Properties=species:S:1:pos:R:3:forces:R:3 energy=-9.978318431695895 pbc="F F F"
W        0.00000000       0.00000000       0.00000000       0.00000000       0.00000000       1.65464926
W        0.00000000       0.00000000       3.13939394       0.00000000       0.00000000      -1.65464926
2
Properties=species:S:1:pos:R:3:forces:R:3 energy=-9.884847528904624 pbc="F F F"
W        0.00000000       0.00000000       0.00000000       0.00000000       0.00000000       1.48314500
W        0.00000000       0.00000000       3.19898990       0.00000000       0.00000000      -1.48314500
2
Properties=species:S:1:pos:R:3:forces:R:3 energy=-9.801444975175313 pbc="F F F"
W        0.00000000       0.00000000       0.00000000       0.00000000       0.00000000       1.31656969
W        0.00000000       0.00000000       3.25858586       0.00000000       0.00000000      -1.31656969
2
Properties=species:S:1:pos:R:3:forces:R:3 energy=-9.72782277280877 pbc="F F F"
W        0.00000000       0.00000000       0.00000000       0.00000000       0.00000000       1.15521026
W        0.00000000       0.00000000       3.31818182       0.00000000       0.00000000      -1.15521026
2
Properties=species:S:1:pos:R:3:forces:R:3 energy=-9.66358800763776 pbc="F F F"
W        0.00000000       0.00000000       0.00000000       0.00000000       0.00000000       1.00218832
W        0.00000000       0.00000000       3.37777778       0.00000000       0.00000000      -1.00218832
2
Properties=species:S:1:pos:R:3:forces:R:3 energy=-9.60812828674352 pbc="F F F"
W        0.00000000       0.00000000       0.00000000       0.00000000       0.00000000       0.86127782
W        0.00000000       0.00000000       3.43737374       0.00000000       0.00000000      -0.86127782
2
Properties=species:S:1:pos:R:3:forces:R:3 energy=-9.560634453818611 pbc="F F F"
W        0.00000000       0.00000000       0.00000000       0.00000000       0.00000000       0.73517621
W        0.00000000       0.00000000       3.49696970       0.00000000       0.00000000      -0.73517621
2
Properties=species:S:1:pos:R:3:forces:R:3 energy=-9.520188079474497 pbc="F F F"
W        0.00000000       0.00000000       0.00000000       0.00000000       0.00000000       0.62477309
W        0.00000000       0.00000000       3.55656566       0.00000000       0.00000000      -0.62477309
2
Properties=species:S:1:pos:R:3:forces:R:3 energy=-9.485866444452048 pbc="F F F"
W        0.00000000       0.00000000       0.00000000       0.00000000       0.00000000       0.52946079
W        0.00000000       0.00000000       3.61616162       0.00000000       0.00000000      -0.52946079
2
Properties=species:S:1:pos:R:3:forces:R:3 energy=-9.45680777278155 pbc="F F F"
W        0.00000000       0.00000000       0.00000000       0.00000000       0.00000000       0.44791943
W        0.00000000       0.00000000       3.67575758       0.00000000       0.00000000      -0.44791943
2
Properties=species:S:1:pos:R:3:forces:R:3 energy=-9.432232317155787 pbc="F F F"
W        0.00000000       0.00000000       0.00000000       0.00000000       0.00000000       0.37878686
W        0.00000000       0.00000000       3.73535354       0.00000000       0.00000000      -0.37878686
2
Properties=species:S:1:pos:R:3:forces:R:3 energy=-9.411435746566264 pbc="F F F"
W        0.00000000       0.00000000       0.00000000       0.00000000       0.00000000       0.32092655
W        0.00000000       0.00000000       3.79494949       0.00000000       0.00000000      -0.32092655
2
Properties=species:S:1:pos:R:3:forces:R:3 energy=-9.393775826541013 pbc="F F F"
W        0.00000000       0.00000000       0.00000000       0.00000000       0.00000000       0.27333072
W        0.00000000       0.00000000       3.85454545       0.00000000       0.00000000      -0.27333072
2
Properties=species:S:1:pos:R:3:forces:R:3 energy=-9.378674355003614 pbc="F F F"
W        0.00000000       0.00000000       0.00000000       0.00000000       0.00000000       0.23491642
W        0.00000000       0.00000000       3.91414141       0.00000000       0.00000000      -0.23491642
2
Properties=species:S:1:pos:R:3:forces:R:3 energy=-9.365618195143071 pbc="F F F"
W        0.00000000       0.00000000       0.00000000       0.00000000       0.00000000       0.20440009
W        0.00000000       0.00000000       3.97373737       0.00000000       0.00000000      -0.20440009
2
Properties=species:S:1:pos:R:3:forces:R:3 energy=-9.35418309192914 pbc="F F F"
W        0.00000000       0.00000000       0.00000000       0.00000000       0.00000000       0.18031698
W        0.00000000       0.00000000       4.03333333       0.00000000       0.00000000      -0.18031698
2
Properties=species:S:1:pos:R:3:forces:R:3 energy=-9.344028973432838 pbc="F F F"
W        0.00000000       0.00000000       0.00000000       0.00000000       0.00000000       0.16114214
W        0.00000000       0.00000000       4.09292929       0.00000000       0.00000000      -0.16114214
2
Properties=species:S:1:pos:R:3:forces:R:3 energy=-9.334906670896167 pbc="F F F"
W        0.00000000       0.00000000       0.00000000       0.00000000       0.00000000       0.14545569
W        0.00000000       0.00000000       4.15252525       0.00000000       0.00000000      -0.14545569
2
Properties=species:S:1:pos:R:3:forces:R:3 energy=-9.326646468304672 pbc="F F F"
W        0.00000000       0.00000000       0.00000000       0.00000000       0.00000000       0.13206543
W        0.00000000       0.00000000       4.21212121       0.00000000       0.00000000      -0.13206543
2
Properties=species:S:1:pos:R:3:forces:R:3 energy=-9.319138119576309 pbc="F F F"
W        0.00000000       0.00000000       0.00000000       0.00000000       0.00000000       0.12006529
W        0.00000000       0.00000000       4.27171717       0.00000000       0.00000000      -0.12006529
2
Properties=species:S:1:pos:R:3:forces:R:3 energy=-9.312320411996936 pbc="F F F"
W        0.00000000       0.00000000       0.00000000       0.00000000       0.00000000       0.10882633
W        0.00000000       0.00000000       4.33131313       0.00000000       0.00000000      -0.10882633
2
Properties=species:S:1:pos:R:3:forces:R:3 energy=-9.306161129556207 pbc="F F F"
W        0.00000000       0.00000000       0.00000000       0.00000000       0.00000000       0.09792517
W        0.00000000       0.00000000       4.39090909       0.00000000       0.00000000      -0.09792517
2
Properties=species:S:1:pos:R:3:forces:R:3 energy=-9.300647497197476 pbc="F F F"
W        0.00000000       0.00000000       0.00000000       0.00000000       0.00000000       0.08705864
W        0.00000000       0.00000000       4.45050505       0.00000000       0.00000000      -0.08705864
2
Properties=species:S:1:pos:R:3:forces:R:3 energy=-9.295788176865443 pbc="F F F"
W        0.00000000       0.00000000       0.00000000       0.00000000       0.00000000       0.07596159
W        0.00000000       0.00000000       4.51010101       0.00000000       0.00000000      -0.07596159
2
Properties=species:S:1:pos:R:3:forces:R:3 energy=-9.291603613553576 pbc="F F F"
W        0.00000000       0.00000000       0.00000000       0.00000000       0.00000000       0.06437149
W        0.00000000       0.00000000       4.56969697       0.00000000       0.00000000      -0.06437149
2
Properties=species:S:1:pos:R:3:forces:R:3 energy=-9.288130905046 pbc="F F F"
W        0.00000000       0.00000000       0.00000000       0.00000000       0.00000000       0.05204098
W        0.00000000       0.00000000       4.62929293       0.00000000       0.00000000      -0.05204098
2
Properties=species:S:1:pos:R:3:forces:R:3 energy=-9.285419857339527 pbc="F F F"
W        0.00000000       0.00000000       0.00000000       0.00000000       0.00000000       0.03878427
W        0.00000000       0.00000000       4.68888889       0.00000000       0.00000000      -0.03878427
2
Properties=species:S:1:pos:R:3:forces:R:3 energy=-9.283527319618548 pbc="F F F"
W        0.00000000       0.00000000       0.00000000       0.00000000       0.00000000       0.02454517
W        0.00000000       0.00000000       4.74848485       0.00000000       0.00000000      -0.02454517
2
Properties=species:S:1:pos:R:3:forces:R:3 energy=-9.282510324801144 pbc="F F F"
W        0.00000000       0.00000000       0.00000000       0.00000000       0.00000000       0.00946095
W        0.00000000       0.00000000       4.80808081       0.00000000       0.00000000      -0.00946095
2
Properties=species:S:1:pos:R:3:forces:R:3 energy=-9.282410006956404 pbc="F F F"
W        0.00000000       0.00000000       0.00000000       0.00000000       0.00000000      -0.00611228
W        0.00000000       0.00000000       4.86767677       0.00000000       0.00000000       0.00611228
2
Properties=species:S:1:pos:R:3:forces:R:3 energy=-9.283237102952539 pbc="F F F"
W        0.00000000       0.00000000       0.00000000       0.00000000       0.00000000      -0.02159118
W        0.00000000       0.00000000       4.92727273       0.00000000       0.00000000       0.02159118
2
Properties=species:S:1:pos:R:3:forces:R:3 energy=-9.28496621140404 pbc="F F F"
W        0.00000000       0.00000000       0.00000000       0.00000000       0.00000000      -0.03621394
W        0.00000000       0.00000000       4.98686869       0.00000000       0.00000000       0.03621394
2
Properties=species:S:1:pos:R:3:forces:R:3 energy=-9.287519535858799 pbc="F F F"
W        0.00000000       0.00000000       0.00000000       0.00000000       0.00000000      -0.04912184
W        0.00000000       0.00000000       5.04646465       0.00000000       0.00000000       0.04912184
2
Properties=species:S:1:pos:R:3:forces:R:3 energy=-9.290770575950305 pbc="F F F"
W        0.00000000       0.00000000       0.00000000       0.00000000       0.00000000      -0.05950974
W        0.00000000       0.00000000       5.10606061       0.00000000       0.00000000       0.05950974
2
Properties=species:S:1:pos:R:3:forces:R:3 energy=-9.294550793614391 pbc="F F F"
W        0.00000000       0.00000000       0.00000000       0.00000000       0.00000000      -0.06676509
W        0.00000000       0.00000000       5.16565657       0.00000000       0.00000000       0.06676509
2
Properties=species:S:1:pos:R:3:forces:R:3 energy=-9.298660036982456 pbc="F F F"
W        0.00000000       0.00000000       0.00000000       0.00000000       0.00000000      -0.07056184
W        0.00000000       0.00000000       5.22525253       0.00000000       0.00000000       0.07056184
2
Properties=species:S:1:pos:R:3:forces:R:3 energy=-9.302889344617764 pbc="F F F"
W        0.00000000       0.00000000       0.00000000       0.00000000       0.00000000      -0.07078193
W        0.00000000       0.00000000       5.28484848       0.00000000       0.00000000       0.07078193
2
Properties=species:S:1:pos:R:3:forces:R:3 energy=-9.307026665977435 pbc="F F F"
W        0.00000000       0.00000000       0.00000000       0.00000000       0.00000000      -0.06746734
W        0.00000000       0.00000000       5.34444444       0.00000000       0.00000000       0.06746734
2
Properties=species:S:1:pos:R:3:forces:R:3 energy=-9.310875849367582 pbc="F F F"
W        0.00000000       0.00000000       0.00000000       0.00000000       0.00000000      -0.06140217
W        0.00000000       0.00000000       5.40404040       0.00000000       0.00000000       0.06140217
2
Properties=species:S:1:pos:R:3:forces:R:3 energy=-9.31433487333155 pbc="F F F"
W        0.00000000       0.00000000       0.00000000       0.00000000       0.00000000      -0.05477060
W        0.00000000       0.00000000       5.46363636       0.00000000       0.00000000       0.05477060
2
Properties=species:S:1:pos:R:3:forces:R:3 energy=-9.317421522996566 pbc="F F F"
W        0.00000000       0.00000000       0.00000000       0.00000000       0.00000000      -0.04898268
W        0.00000000       0.00000000       5.52323232       0.00000000       0.00000000       0.04898268
2
Properties=species:S:1:pos:R:3:forces:R:3 energy=-9.320163760292946 pbc="F F F"
W        0.00000000       0.00000000       0.00000000       0.00000000       0.00000000      -0.04280332
W        0.00000000       0.00000000       5.58282828       0.00000000       0.00000000       0.04280332
2
Properties=species:S:1:pos:R:3:forces:R:3 energy=-9.322503329988221 pbc="F F F"
W        0.00000000       0.00000000       0.00000000       0.00000000       0.00000000      -0.03566981
W        0.00000000       0.00000000       5.64242424       0.00000000       0.00000000       0.03566981
2
Properties=species:S:1:pos:R:3:forces:R:3 energy=-9.324437934771936 pbc="F F F"
W        0.00000000       0.00000000       0.00000000       0.00000000       0.00000000      -0.02964317
W        0.00000000       0.00000000       5.70202020       0.00000000       0.00000000       0.02964317
2
Properties=species:S:1:pos:R:3:forces:R:3 energy=-9.32610799744368 pbc="F F F"
W        0.00000000       0.00000000       0.00000000       0.00000000       0.00000000      -0.02702208
W        0.00000000       0.00000000       5.76161616       0.00000000       0.00000000       0.02702208
2
Properties=species:S:1:pos:R:3:forces:R:3 energy=-9.327637402053984 pbc="F F F"
W        0.00000000       0.00000000       0.00000000       0.00000000       0.00000000      -0.02313706
W        0.00000000       0.00000000       5.82121212       0.00000000       0.00000000       0.02313706
2
Properties=species:S:1:pos:R:3:forces:R:3 energy=-9.32866433999362 pbc="F F F"
W        0.00000000       0.00000000       0.00000000       0.00000000       0.00000000      -0.00999163
W        0.00000000       0.00000000       5.88080808       0.00000000       0.00000000       0.00999163
2
Properties=species:S:1:pos:R:3:forces:R:3 energy=-9.32876854341607 pbc="F F F"
W        0.00000000       0.00000000       0.00000000       0.00000000       0.00000000       0.00615666
W        0.00000000       0.00000000       5.94040404       0.00000000       0.00000000      -0.00615666
2
Properties=species:S:1:pos:R:3:forces:R:3 energy=-9.328133190649993 pbc="F F F"
W        0.00000000       0.00000000       0.00000000       0.00000000       0.00000000       0.01275367
W        0.00000000       0.00000000       6.00000000       0.00000000       0.00000000      -0.01275367
