2
Properties=species:S:1:pos:R:3:forces:R:3 energy=42487.3311523242 pbc="F F F"
Y        0.00000000       0.00000000       0.00000000       0.00000000       0.00000000 -668006.75000000
Y        0.00000000       0.00000000       0.10000000       0.00000000       0.00000000  668006.75000000
2
Properties=species:S:1:pos:R:3:forces:R:3 energy=22572.862402324197 pbc="F F F"
Y        0.00000000       0.00000000       0.00000000       0.00000000       0.00000000 -151231.20312500
Y        0.00000000       0.00000000       0.15959596       0.00000000       0.00000000  151231.20312500
2
Properties=species:S:1:pos:R:3:forces:R:3 energy=17230.985449199197 pbc="F F F"
Y        0.00000000       0.00000000       0.00000000       0.00000000       0.00000000  -50983.19921875
Y        0.00000000       0.00000000       0.21919192       0.00000000       0.00000000   50983.19921875
2
Properties=species:S:1:pos:R:3:forces:R:3 energy=15124.9541991992 pbc="F F F"
Y        0.00000000       0.00000000       0.00000000       0.00000000       0.00000000  -25341.51171875
Y        0.00000000       0.00000000       0.27878788       0.00000000       0.00000000   25341.51171875
2
Properties=species:S:1:pos:R:3:forces:R:3 energy=13809.62705077437 pbc="F F F"
Y        0.00000000       0.00000000       0.00000000       0.00000000       0.00000000  -20830.65429688
Y        0.00000000       0.00000000       0.33838384       0.00000000       0.00000000   20830.65429688
2
Properties=species:S:1:pos:R:3:forces:R:3 energy=12476.07919921187 pbc="F F F"
Y        0.00000000       0.00000000       0.00000000       0.00000000       0.00000000  -24868.76562500
Y        0.00000000       0.00000000       0.39797980       0.00000000       0.00000000   24868.76562500
2
Properties=species:S:1:pos:R:3:forces:R:3 energy=10651.41123046187 pbc="F F F"
Y        0.00000000       0.00000000       0.00000000       0.00000000       0.00000000  -35365.59375000
Y        0.00000000       0.00000000       0.45757576       0.00000000       0.00000000   35365.59375000
2
Properties=species:S:1:pos:R:3:forces:R:3 energy=8287.802832037041 pbc="F F F"
Y        0.00000000       0.00000000       0.00000000       0.00000000       0.00000000  -43545.45312500
Y        0.00000000       0.00000000       0.51717172       0.00000000       0.00000000   43545.45312500
2
Properties=species:S:1:pos:R:3:forces:R:3 energy=5555.1885742498835 pbc="F F F"
Y        0.00000000       0.00000000       0.00000000       0.00000000       0.00000000  -47028.85937500
Y        0.00000000       0.00000000       0.57676768       0.00000000       0.00000000   47028.85937500
2
Properties=species:S:1:pos:R:3:forces:R:3 energy=2779.8904785847726 pbc="F F F"
Y        0.00000000       0.00000000       0.00000000       0.00000000       0.00000000  -43457.66796875
Y        0.00000000       0.00000000       0.63636364       0.00000000       0.00000000   43457.66796875
2
Properties=species:S:1:pos:R:3:forces:R:3 energy=551.9601197550746 pbc="F F F"
Y        0.00000000       0.00000000       0.00000000       0.00000000       0.00000000  -30220.06250000
Y        0.00000000       0.00000000       0.69595960       0.00000000       0.00000000   30220.06250000
2
Properties=species:S:1:pos:R:3:forces:R:3 energy=-721.7775510483282 pbc="F F F"
Y        0.00000000       0.00000000       0.00000000       0.00000000       0.00000000   -8944.50390625
Y        0.00000000       0.00000000       0.75555556       0.00000000       0.00000000    8944.50390625
2
Properties=species:S:1:pos:R:3:forces:R:3 energy=-626.4186641965297 pbc="F F F"
Y        0.00000000       0.00000000       0.00000000       0.00000000       0.00000000    4499.49902344
Y        0.00000000       0.00000000       0.81515152       0.00000000       0.00000000   -4499.49902344
2
Properties=species:S:1:pos:R:3:forces:R:3 energy=-374.9211359239528 pbc="F F F"
Y        0.00000000       0.00000000       0.00000000       0.00000000       0.00000000    3119.44653320
Y        0.00000000       0.00000000       0.87474747       0.00000000       0.00000000   -3119.44653320
2
Properties=species:S:1:pos:R:3:forces:R:3 energy=-272.040489899567 pbc="F F F"
Y        0.00000000       0.00000000       0.00000000       0.00000000       0.00000000    1639.13439941
Y        0.00000000       0.00000000       0.93434343       0.00000000       0.00000000   -1639.13439941
2
Properties=species:S:1:pos:R:3:forces:R:3 energy=-187.99831422012394 pbc="F F F"
Y        0.00000000       0.00000000       0.00000000       0.00000000       0.00000000    1476.32067871
Y        0.00000000       0.00000000       0.99393939       0.00000000       0.00000000   -1476.32067871
2
Properties=species:S:1:pos:R:3:forces:R:3 energy=-97.89255503360893 pbc="F F F"
Y        0.00000000       0.00000000       0.00000000       0.00000000       0.00000000    1410.04541016
Y        0.00000000       0.00000000       1.05353535       0.00000000       0.00000000   -1410.04541016
2
Properties=species:S:1:pos:R:3:forces:R:3 energy=-38.94029908766461 pbc="F F F"
Y        0.00000000       0.00000000       0.00000000       0.00000000       0.00000000     578.42919922
Y        0.00000000       0.00000000       1.11313131       0.00000000       0.00000000    -578.42919922
2
Properties=species:S:1:pos:R:3:forces:R:3 energy=-11.493549441811327 pbc="F F F"
Y        0.00000000       0.00000000       0.00000000       0.00000000       0.00000000     363.52593994
Y        0.00000000       0.00000000       1.17272727       0.00000000       0.00000000    -363.52593994
2
Properties=species:S:1:pos:R:3:forces:R:3 energy=5.163996839011481 pbc="F F F"
Y        0.00000000       0.00000000       0.00000000       0.00000000       0.00000000     203.24667358
Y        0.00000000       0.00000000       1.23232323       0.00000000       0.00000000    -203.24667358
2
Properties=species:S:1:pos:R:3:forces:R:3 energy=13.101231330757518 pbc="F F F"
Y        0.00000000       0.00000000       0.00000000       0.00000000       0.00000000      80.76710510
Y        0.00000000       0.00000000       1.29191919       0.00000000       0.00000000     -80.76710510
2
Properties=species:S:1:pos:R:3:forces:R:3 energy=16.817776467096508 pbc="F F F"
Y        0.00000000       0.00000000       0.00000000       0.00000000       0.00000000      53.85147476
Y        0.00000000       0.00000000       1.35151515       0.00000000       0.00000000     -53.85147476
2
Properties=species:S:1:pos:R:3:forces:R:3 energy=19.751223889461848 pbc="F F F"
Y        0.00000000       0.00000000       0.00000000       0.00000000       0.00000000      41.10975647
Y        0.00000000       0.00000000       1.41111111       0.00000000       0.00000000     -41.10975647
2
Properties=species:S:1:pos:R:3:forces:R:3 energy=21.175253419828923 pbc="F F F"
Y        0.00000000       0.00000000       0.00000000       0.00000000       0.00000000       3.20061946
Y        0.00000000       0.00000000       1.47070707       0.00000000       0.00000000      -3.20061946
2
Properties=species:S:1:pos:R:3:forces:R:3 energy=20.002747023435617 pbc="F F F"
Y        0.00000000       0.00000000       0.00000000       0.00000000       0.00000000     -41.50962448
Y        0.00000000       0.00000000       1.53030303       0.00000000       0.00000000      41.50962448
2
Properties=species:S:1:pos:R:3:forces:R:3 energy=16.528441714520017 pbc="F F F"
Y        0.00000000       0.00000000       0.00000000       0.00000000       0.00000000     -71.51046753
Y        0.00000000       0.00000000       1.58989899       0.00000000       0.00000000      71.51046753
2
Properties=species:S:1:pos:R:3:forces:R:3 energy=11.942464051533676 pbc="F F F"
Y        0.00000000       0.00000000       0.00000000       0.00000000       0.00000000     -78.68022919
Y        0.00000000       0.00000000       1.64949495       0.00000000       0.00000000      78.68022919
2
Properties=species:S:1:pos:R:3:forces:R:3 energy=7.504306132345826 pbc="F F F"
Y        0.00000000       0.00000000       0.00000000       0.00000000       0.00000000     -68.25711823
Y        0.00000000       0.00000000       1.70909091       0.00000000       0.00000000      68.25711823
2
Properties=species:S:1:pos:R:3:forces:R:3 energy=3.925510289213687 pbc="F F F"
Y        0.00000000       0.00000000       0.00000000       0.00000000       0.00000000     -51.70868683
Y        0.00000000       0.00000000       1.76868687       0.00000000       0.00000000      51.70868683
2
Properties=species:S:1:pos:R:3:forces:R:3 energy=1.2957078245122498 pbc="F F F"
Y        0.00000000       0.00000000       0.00000000       0.00000000       0.00000000     -37.21739960
Y        0.00000000       0.00000000       1.82828283       0.00000000       0.00000000      37.21739960
2
Properties=species:S:1:pos:R:3:forces:R:3 energy=-0.5960161033219225 pbc="F F F"
Y        0.00000000       0.00000000       0.00000000       0.00000000       0.00000000     -26.93567657
Y        0.00000000       0.00000000       1.88787879       0.00000000       0.00000000      26.93567657
2
Properties=species:S:1:pos:R:3:forces:R:3 energy=-1.9811556549190639 pbc="F F F"
Y        0.00000000       0.00000000       0.00000000       0.00000000       0.00000000     -19.98882294
Y        0.00000000       0.00000000       1.94747475       0.00000000       0.00000000      19.98882294
2
Properties=species:S:1:pos:R:3:forces:R:3 energy=-3.0192437630784785 pbc="F F F"
Y        0.00000000       0.00000000       0.00000000       0.00000000       0.00000000     -15.10935020
Y        0.00000000       0.00000000       2.00707071       0.00000000       0.00000000      15.10935020
2
Properties=species:S:1:pos:R:3:forces:R:3 energy=-3.806354860890684 pbc="F F F"
Y        0.00000000       0.00000000       0.00000000       0.00000000       0.00000000     -11.46501255
Y        0.00000000       0.00000000       2.06666667       0.00000000       0.00000000      11.46501255
2
Properties=species:S:1:pos:R:3:forces:R:3 energy=-4.401241590499411 pbc="F F F"
Y        0.00000000       0.00000000       0.00000000       0.00000000       0.00000000      -8.60686493
Y        0.00000000       0.00000000       2.12626263       0.00000000       0.00000000       8.60686493
2
Properties=species:S:1:pos:R:3:forces:R:3 energy=-4.8435568833403995 pbc="F F F"
Y        0.00000000       0.00000000       0.00000000       0.00000000       0.00000000      -6.32350922
Y        0.00000000       0.00000000       2.18585859       0.00000000       0.00000000       6.32350922
2
Properties=species:S:1:pos:R:3:forces:R:3 energy=-5.164788554442707 pbc="F F F"
Y        0.00000000       0.00000000       0.00000000       0.00000000       0.00000000      -4.53700829
Y        0.00000000       0.00000000       2.24545455       0.00000000       0.00000000       4.53700829
2
Properties=species:S:1:pos:R:3:forces:R:3 energy=-5.393710185703167 pbc="F F F"
Y        0.00000000       0.00000000       0.00000000       0.00000000       0.00000000      -3.22246718
Y        0.00000000       0.00000000       2.30505051       0.00000000       0.00000000       3.22246718
2
Properties=species:S:1:pos:R:3:forces:R:3 energy=-5.557695097361234 pbc="F F F"
Y        0.00000000       0.00000000       0.00000000       0.00000000       0.00000000      -2.34981465
Y        0.00000000       0.00000000       2.36464646       0.00000000       0.00000000       2.34981465
2
Properties=species:S:1:pos:R:3:forces:R:3 energy=-5.681076663403024 pbc="F F F"
Y        0.00000000       0.00000000       0.00000000       0.00000000       0.00000000      -1.84235609
Y        0.00000000       0.00000000       2.42424242       0.00000000       0.00000000       1.84235609
2
Properties=species:S:1:pos:R:3:forces:R:3 energy=-5.782112682184991 pbc="F F F"
Y        0.00000000       0.00000000       0.00000000       0.00000000       0.00000000      -1.57769811
Y        0.00000000       0.00000000       2.48383838       0.00000000       0.00000000       1.57769811
2
Properties=species:S:1:pos:R:3:forces:R:3 energy=-5.871446063723864 pbc="F F F"
Y        0.00000000       0.00000000       0.00000000       0.00000000       0.00000000      -1.43115461
Y        0.00000000       0.00000000       2.54343434       0.00000000       0.00000000       1.43115461
2
Properties=species:S:1:pos:R:3:forces:R:3 energy=-5.95326627330964 pbc="F F F"
Y        0.00000000       0.00000000       0.00000000       0.00000000       0.00000000      -1.31492841
Y        0.00000000       0.00000000       2.60303030       0.00000000       0.00000000       1.31492841
2
Properties=species:S:1:pos:R:3:forces:R:3 energy=-6.027881403808216 pbc="F F F"
Y        0.00000000       0.00000000       0.00000000       0.00000000       0.00000000      -1.18505108
Y        0.00000000       0.00000000       2.66262626       0.00000000       0.00000000       1.18505108
2
Properties=species:S:1:pos:R:3:forces:R:3 energy=-6.093964417473652 pbc="F F F"
Y        0.00000000       0.00000000       0.00000000       0.00000000       0.00000000      -1.02788985
Y        0.00000000       0.00000000       2.72222222       0.00000000       0.00000000       1.02788985
2
Properties=species:S:1:pos:R:3:forces:R:3 energy=-6.149881208469982 pbc="F F F"
Y        0.00000000       0.00000000       0.00000000       0.00000000       0.00000000      -0.84484088
Y        0.00000000       0.00000000       2.78181818       0.00000000       0.00000000       0.84484088
2
Properties=species:S:1:pos:R:3:forces:R:3 energy=-6.194283374495613 pbc="F F F"
Y        0.00000000       0.00000000       0.00000000       0.00000000       0.00000000      -0.64279997
Y        0.00000000       0.00000000       2.84141414       0.00000000       0.00000000       0.64279997
2
Properties=species:S:1:pos:R:3:forces:R:3 energy=-6.226279171256381 pbc="F F F"
Y        0.00000000       0.00000000       0.00000000       0.00000000       0.00000000      -0.42979488
Y        0.00000000       0.00000000       2.90101010       0.00000000       0.00000000       0.42979488
2
Properties=species:S:1:pos:R:3:forces:R:3 energy=-6.245453049478356 pbc="F F F"
Y        0.00000000       0.00000000       0.00000000       0.00000000       0.00000000      -0.21381028
Y        0.00000000       0.00000000       2.96060606       0.00000000       0.00000000       0.21381028
2
Properties=species:S:1:pos:R:3:forces:R:3 energy=-6.251866199133847 pbc="F F F"
Y        0.00000000       0.00000000       0.00000000       0.00000000       0.00000000      -0.00297124
Y        0.00000000       0.00000000       3.02020202       0.00000000       0.00000000       0.00297124
2
Properties=species:S:1:pos:R:3:forces:R:3 energy=-6.246073904689329 pbc="F F F"
Y        0.00000000       0.00000000       0.00000000       0.00000000       0.00000000       0.19446404
Y        0.00000000       0.00000000       3.07979798       0.00000000       0.00000000      -0.19446404
2
Properties=species:S:1:pos:R:3:forces:R:3 energy=-6.229107729789396 pbc="F F F"
Y        0.00000000       0.00000000       0.00000000       0.00000000       0.00000000       0.37086850
Y        0.00000000       0.00000000       3.13939394       0.00000000       0.00000000      -0.37086850
2
Properties=species:S:1:pos:R:3:forces:R:3 energy=-6.202405286523036 pbc="F F F"
Y        0.00000000       0.00000000       0.00000000       0.00000000       0.00000000       0.52035171
Y        0.00000000       0.00000000       3.19898990       0.00000000       0.00000000      -0.52035171
2
Properties=species:S:1:pos:R:3:forces:R:3 energy=-6.16768522172481 pbc="F F F"
Y        0.00000000       0.00000000       0.00000000       0.00000000       0.00000000       0.63972098
Y        0.00000000       0.00000000       3.25858586       0.00000000       0.00000000      -0.63972098
2
Properties=species:S:1:pos:R:3:forces:R:3 energy=-6.126754632612158 pbc="F F F"
Y        0.00000000       0.00000000       0.00000000       0.00000000       0.00000000       0.72912776
Y        0.00000000       0.00000000       3.31818182       0.00000000       0.00000000      -0.72912776
2
Properties=species:S:1:pos:R:3:forces:R:3 energy=-6.081294365451561 pbc="F F F"
Y        0.00000000       0.00000000       0.00000000       0.00000000       0.00000000       0.79277670
Y        0.00000000       0.00000000       3.37777778       0.00000000       0.00000000      -0.79277670
2
Properties=species:S:1:pos:R:3:forces:R:3 energy=-6.0326004896070184 pbc="F F F"
Y        0.00000000       0.00000000       0.00000000       0.00000000       0.00000000       0.83950090
Y        0.00000000       0.00000000       3.43737374       0.00000000       0.00000000      -0.83950090
2
Properties=species:S:1:pos:R:3:forces:R:3 energy=-5.981334685898402 pbc="F F F"
Y        0.00000000       0.00000000       0.00000000       0.00000000       0.00000000       0.88093674
Y        0.00000000       0.00000000       3.49696970       0.00000000       0.00000000      -0.88093674
2
Properties=species:S:1:pos:R:3:forces:R:3 energy=-5.92754467137453 pbc="F F F"
Y        0.00000000       0.00000000       0.00000000       0.00000000       0.00000000       0.92468518
Y        0.00000000       0.00000000       3.55656566       0.00000000       0.00000000      -0.92468518
2
Properties=species:S:1:pos:R:3:forces:R:3 energy=-5.871131275551278 pbc="F F F"
Y        0.00000000       0.00000000       0.00000000       0.00000000       0.00000000       0.96763873
Y        0.00000000       0.00000000       3.61616162       0.00000000       0.00000000      -0.96763873
2
Properties=species:S:1:pos:R:3:forces:R:3 energy=-5.812420179379239 pbc="F F F"
Y        0.00000000       0.00000000       0.00000000       0.00000000       0.00000000       1.00021327
Y        0.00000000       0.00000000       3.67575758       0.00000000       0.00000000      -1.00021327
2
Properties=species:S:1:pos:R:3:forces:R:3 energy=-5.752238062640797 pbc="F F F"
Y        0.00000000       0.00000000       0.00000000       0.00000000       0.00000000       1.01669443
Y        0.00000000       0.00000000       3.73535354       0.00000000       0.00000000      -1.01669443
2
Properties=species:S:1:pos:R:3:forces:R:3 energy=-5.691540576704594 pbc="F F F"
Y        0.00000000       0.00000000       0.00000000       0.00000000       0.00000000       1.01802826
Y        0.00000000       0.00000000       3.79494949       0.00000000       0.00000000      -1.01802826
2
Properties=species:S:1:pos:R:3:forces:R:3 energy=-5.631122900100163 pbc="F F F"
Y        0.00000000       0.00000000       0.00000000       0.00000000       0.00000000       1.00798190
Y        0.00000000       0.00000000       3.85454545       0.00000000       0.00000000      -1.00798190
2
Properties=species:S:1:pos:R:3:forces:R:3 energy=-5.5715537844608 pbc="F F F"
Y        0.00000000       0.00000000       0.00000000       0.00000000       0.00000000       0.99007750
Y        0.00000000       0.00000000       3.91414141       0.00000000       0.00000000      -0.99007750
2
Properties=species:S:1:pos:R:3:forces:R:3 energy=-5.513217153789958 pbc="F F F"
Y        0.00000000       0.00000000       0.00000000       0.00000000       0.00000000       0.96695578
Y        0.00000000       0.00000000       3.97373737       0.00000000       0.00000000      -0.96695578
2
Properties=species:S:1:pos:R:3:forces:R:3 energy=-5.456363372560219 pbc="F F F"
Y        0.00000000       0.00000000       0.00000000       0.00000000       0.00000000       0.94063491
Y        0.00000000       0.00000000       4.03333333       0.00000000       0.00000000      -0.94063491
2
Properties=species:S:1:pos:R:3:forces:R:3 energy=-5.4011321754997805 pbc="F F F"
Y        0.00000000       0.00000000       0.00000000       0.00000000       0.00000000       0.91271043
Y        0.00000000       0.00000000       4.09292929       0.00000000       0.00000000      -0.91271043
2
Properties=species:S:1:pos:R:3:forces:R:3 energy=-5.3475832426417504 pbc="F F F"
Y        0.00000000       0.00000000       0.00000000       0.00000000       0.00000000       0.88439530
Y        0.00000000       0.00000000       4.15252525       0.00000000       0.00000000      -0.88439530
2
Properties=species:S:1:pos:R:3:forces:R:3 energy=-5.29571183562893 pbc="F F F"
Y        0.00000000       0.00000000       0.00000000       0.00000000       0.00000000       0.85651672
Y        0.00000000       0.00000000       4.21212121       0.00000000       0.00000000      -0.85651672
2
Properties=species:S:1:pos:R:3:forces:R:3 energy=-5.245474582950695 pbc="F F F"
Y        0.00000000       0.00000000       0.00000000       0.00000000       0.00000000       0.82956314
Y        0.00000000       0.00000000       4.27171717       0.00000000       0.00000000      -0.82956314
2
Properties=species:S:1:pos:R:3:forces:R:3 energy=-5.1968109786369405 pbc="F F F"
Y        0.00000000       0.00000000       0.00000000       0.00000000       0.00000000       0.80378205
Y        0.00000000       0.00000000       4.33131313       0.00000000       0.00000000      -0.80378205
2
Properties=species:S:1:pos:R:3:forces:R:3 energy=-5.1496460895617435 pbc="F F F"
Y        0.00000000       0.00000000       0.00000000       0.00000000       0.00000000       0.77925289
Y        0.00000000       0.00000000       4.39090909       0.00000000       0.00000000      -0.77925289
2
Properties=species:S:1:pos:R:3:forces:R:3 energy=-5.103905082305651 pbc="F F F"
Y        0.00000000       0.00000000       0.00000000       0.00000000       0.00000000       0.75597340
Y        0.00000000       0.00000000       4.45050505       0.00000000       0.00000000      -0.75597340
2
Properties=species:S:1:pos:R:3:forces:R:3 energy=-5.059516732078188 pbc="F F F"
Y        0.00000000       0.00000000       0.00000000       0.00000000       0.00000000       0.73385465
Y        0.00000000       0.00000000       4.51010101       0.00000000       0.00000000      -0.73385465
2
Properties=species:S:1:pos:R:3:forces:R:3 energy=-5.016416087335828 pbc="F F F"
Y        0.00000000       0.00000000       0.00000000       0.00000000       0.00000000       0.71267635
Y        0.00000000       0.00000000       4.56969697       0.00000000       0.00000000      -0.71267635
2
Properties=species:S:1:pos:R:3:forces:R:3 energy=-4.974559581187408 pbc="F F F"
Y        0.00000000       0.00000000       0.00000000       0.00000000       0.00000000       0.69205558
Y        0.00000000       0.00000000       4.62929293       0.00000000       0.00000000      -0.69205558
2
Properties=species:S:1:pos:R:3:forces:R:3 energy=-4.933930111876111 pbc="F F F"
Y        0.00000000       0.00000000       0.00000000       0.00000000       0.00000000       0.67141581
Y        0.00000000       0.00000000       4.68888889       0.00000000       0.00000000      -0.67141581
2
Properties=species:S:1:pos:R:3:forces:R:3 energy=-4.894547170401392 pbc="F F F"
Y        0.00000000       0.00000000       0.00000000       0.00000000       0.00000000       0.65003067
Y        0.00000000       0.00000000       4.74848485       0.00000000       0.00000000      -0.65003067
2
Properties=species:S:1:pos:R:3:forces:R:3 energy=-4.85648049773416 pbc="F F F"
Y        0.00000000       0.00000000       0.00000000       0.00000000       0.00000000       0.62721068
Y        0.00000000       0.00000000       4.80808081       0.00000000       0.00000000      -0.62721068
2
Properties=species:S:1:pos:R:3:forces:R:3 energy=-4.819825422333093 pbc="F F F"
Y        0.00000000       0.00000000       0.00000000       0.00000000       0.00000000       0.60255504
Y        0.00000000       0.00000000       4.86767677       0.00000000       0.00000000      -0.60255504
2
Properties=species:S:1:pos:R:3:forces:R:3 energy=-4.784691327353811 pbc="F F F"
Y        0.00000000       0.00000000       0.00000000       0.00000000       0.00000000       0.57630581
Y        0.00000000       0.00000000       4.92727273       0.00000000       0.00000000      -0.57630581
2
Properties=species:S:1:pos:R:3:forces:R:3 energy=-4.7511442211136385 pbc="F F F"
Y        0.00000000       0.00000000       0.00000000       0.00000000       0.00000000       0.54957891
Y        0.00000000       0.00000000       4.98686869       0.00000000       0.00000000      -0.54957891
2
Properties=species:S:1:pos:R:3:forces:R:3 energy=-4.719159656925821 pbc="F F F"
Y        0.00000000       0.00000000       0.00000000       0.00000000       0.00000000       0.52434343
Y        0.00000000       0.00000000       5.04646465       0.00000000       0.00000000      -0.52434343
2
Properties=species:S:1:pos:R:3:forces:R:3 energy=-4.688574764279716 pbc="F F F"
Y        0.00000000       0.00000000       0.00000000       0.00000000       0.00000000       0.50281453
Y        0.00000000       0.00000000       5.10606061       0.00000000       0.00000000      -0.50281453
2
Properties=species:S:1:pos:R:3:forces:R:3 energy=-4.659123057953341 pbc="F F F"
Y        0.00000000       0.00000000       0.00000000       0.00000000       0.00000000       0.48625821
Y        0.00000000       0.00000000       5.16565657       0.00000000       0.00000000      -0.48625821
2
Properties=species:S:1:pos:R:3:forces:R:3 energy=-4.6305435576948675 pbc="F F F"
Y        0.00000000       0.00000000       0.00000000       0.00000000       0.00000000       0.47311023
Y        0.00000000       0.00000000       5.22525253       0.00000000       0.00000000      -0.47311023
2
Properties=species:S:1:pos:R:3:forces:R:3 energy=-4.602782110201889 pbc="F F F"
Y        0.00000000       0.00000000       0.00000000       0.00000000       0.00000000       0.45747286
Y        0.00000000       0.00000000       5.28484848       0.00000000       0.00000000      -0.45747286
2
Properties=species:S:1:pos:R:3:forces:R:3 energy=-4.576223824229365 pbc="F F F"
Y        0.00000000       0.00000000       0.00000000       0.00000000       0.00000000       0.43172994
Y        0.00000000       0.00000000       5.34444444       0.00000000       0.00000000      -0.43172994
2
Properties=species:S:1:pos:R:3:forces:R:3 energy=-4.5514768542807 pbc="F F F"
Y        0.00000000       0.00000000       0.00000000       0.00000000       0.00000000       0.39909154
Y        0.00000000       0.00000000       5.40404040       0.00000000       0.00000000      -0.39909154
2
Properties=species:S:1:pos:R:3:forces:R:3 energy=-4.528329278974398 pbc="F F F"
Y        0.00000000       0.00000000       0.00000000       0.00000000       0.00000000       0.38191536
Y        0.00000000       0.00000000       5.46363636       0.00000000       0.00000000      -0.38191536
2
Properties=species:S:1:pos:R:3:forces:R:3 energy=-4.505607060591721 pbc="F F F"
Y        0.00000000       0.00000000       0.00000000       0.00000000       0.00000000       0.38048872
Y        0.00000000       0.00000000       5.52323232       0.00000000       0.00000000      -0.38048872
2
Properties=species:S:1:pos:R:3:forces:R:3 energy=-4.483486133422151 pbc="F F F"
Y        0.00000000       0.00000000       0.00000000       0.00000000       0.00000000       0.35582238
Y        0.00000000       0.00000000       5.58282828       0.00000000       0.00000000      -0.35582238
2
Properties=species:S:1:pos:R:3:forces:R:3 energy=-4.463688702281459 pbc="F F F"
Y        0.00000000       0.00000000       0.00000000       0.00000000       0.00000000       0.30776936
Y        0.00000000       0.00000000       5.64242424       0.00000000       0.00000000      -0.30776936
2
Properties=species:S:1:pos:R:3:forces:R:3 energy=-4.446368592879483 pbc="F F F"
Y        0.00000000       0.00000000       0.00000000       0.00000000       0.00000000       0.28093749
Y        0.00000000       0.00000000       5.70202020       0.00000000       0.00000000      -0.28093749
2
Properties=species:S:1:pos:R:3:forces:R:3 energy=-4.429178469639654 pbc="F F F"
Y        0.00000000       0.00000000       0.00000000       0.00000000       0.00000000       0.30155984
Y        0.00000000       0.00000000       5.76161616       0.00000000       0.00000000      -0.30155984
2
Properties=species:S:1:pos:R:3:forces:R:3 energy=-4.410960485611407 pbc="F F F"
Y        0.00000000       0.00000000       0.00000000       0.00000000       0.00000000       0.29545158
Y        0.00000000       0.00000000       5.82121212       0.00000000       0.00000000      -0.29545158
2
Properties=species:S:1:pos:R:3:forces:R:3 energy=-4.39591059007179 pbc="F F F"
Y        0.00000000       0.00000000       0.00000000       0.00000000       0.00000000       0.19902521
Y        0.00000000       0.00000000       5.88080808       0.00000000       0.00000000      -0.19902521
2
Properties=species:S:1:pos:R:3:forces:R:3 energy=-4.387600319702757 pbc="F F F"
Y        0.00000000       0.00000000       0.00000000       0.00000000       0.00000000       0.08271101
Y        0.00000000       0.00000000       5.94040404       0.00000000       0.00000000      -0.08271101
2
Properties=species:S:1:pos:R:3:forces:R:3 energy=-4.384625760892877 pbc="F F F"
Y        0.00000000       0.00000000       0.00000000       0.00000000       0.00000000       0.03343363
Y        0.00000000       0.00000000       6.00000000       0.00000000       0.00000000      -0.03343363
