2
Properties=species:S:1:pos:R:3:forces:R:3 energy=22692.884480678244 pbc="F F F"
Zr       0.00000000       0.00000000       0.00000000       0.00000000       0.00000000 -697321.31250000
Zr       0.00000000       0.00000000       0.10000000       0.00000000       0.00000000  697321.31250000
2
Properties=species:S:1:pos:R:3:forces:R:3 energy=1964.8069660298067 pbc="F F F"
Zr       0.00000000       0.00000000       0.00000000       0.00000000       0.00000000 -156143.09375000
Zr       0.00000000       0.00000000       0.15959596       0.00000000       0.00000000  156143.09375000
2
Properties=species:S:1:pos:R:3:forces:R:3 energy=-3448.2151286967555 pbc="F F F"
Zr       0.00000000       0.00000000       0.00000000       0.00000000       0.00000000  -49120.08984375
Zr       0.00000000       0.00000000       0.21919192       0.00000000       0.00000000   49120.08984375
2
Properties=species:S:1:pos:R:3:forces:R:3 energy=-5269.4792888530055 pbc="F F F"
Zr       0.00000000       0.00000000       0.00000000       0.00000000       0.00000000  -17393.75195312
Zr       0.00000000       0.00000000       0.27878788       0.00000000       0.00000000   17393.75195312
2
Properties=species:S:1:pos:R:3:forces:R:3 energy=-5872.4265544780055 pbc="F F F"
Zr       0.00000000       0.00000000       0.00000000       0.00000000       0.00000000   -4356.13476562
Zr       0.00000000       0.00000000       0.33838384       0.00000000       0.00000000    4356.13476562
2
Properties=species:S:1:pos:R:3:forces:R:3 energy=-5889.6023357280055 pbc="F F F"
Zr       0.00000000       0.00000000       0.00000000       0.00000000       0.00000000    3356.74853516
Zr       0.00000000       0.00000000       0.39797980       0.00000000       0.00000000   -3356.74853516
2
Properties=species:S:1:pos:R:3:forces:R:3 energy=-5497.277140402834 pbc="F F F"
Zr       0.00000000       0.00000000       0.00000000       0.00000000       0.00000000    9725.15722656
Zr       0.00000000       0.00000000       0.45757576       0.00000000       0.00000000   -9725.15722656
2
Properties=species:S:1:pos:R:3:forces:R:3 energy=-4737.208781021499 pbc="F F F"
Zr       0.00000000       0.00000000       0.00000000       0.00000000       0.00000000   15695.87304688
Zr       0.00000000       0.00000000       0.51717172       0.00000000       0.00000000  -15695.87304688
2
Properties=species:S:1:pos:R:3:forces:R:3 energy=-3649.6008708399063 pbc="F F F"
Zr       0.00000000       0.00000000       0.00000000       0.00000000       0.00000000   20456.39843750
Zr       0.00000000       0.00000000       0.57676768       0.00000000       0.00000000  -20456.39843750
2
Properties=species:S:1:pos:R:3:forces:R:3 energy=-2364.171183301892 pbc="F F F"
Zr       0.00000000       0.00000000       0.00000000       0.00000000       0.00000000   21937.59570312
Zr       0.00000000       0.00000000       0.63636364       0.00000000       0.00000000  -21937.59570312
2
Properties=species:S:1:pos:R:3:forces:R:3 energy=-1138.3569742604964 pbc="F F F"
Zr       0.00000000       0.00000000       0.00000000       0.00000000       0.00000000   18305.80078125
Zr       0.00000000       0.00000000       0.69595960       0.00000000       0.00000000  -18305.80078125
2
Properties=species:S:1:pos:R:3:forces:R:3 energy=-267.6800942826493 pbc="F F F"
Zr       0.00000000       0.00000000       0.00000000       0.00000000       0.00000000   10511.37988281
Zr       0.00000000       0.00000000       0.75555556       0.00000000       0.00000000  -10511.37988281
2
Properties=species:S:1:pos:R:3:forces:R:3 energy=114.34410629618797 pbc="F F F"
Zr       0.00000000       0.00000000       0.00000000       0.00000000       0.00000000    1897.09887695
Zr       0.00000000       0.00000000       0.81515152       0.00000000       0.00000000   -1897.09887695
2
Properties=species:S:1:pos:R:3:forces:R:3 energy=149.51657658536638 pbc="F F F"
Zr       0.00000000       0.00000000       0.00000000       0.00000000       0.00000000    -364.31066895
Zr       0.00000000       0.00000000       0.87474747       0.00000000       0.00000000     364.31066895
2
Properties=species:S:1:pos:R:3:forces:R:3 energy=83.87940034412722 pbc="F F F"
Zr       0.00000000       0.00000000       0.00000000       0.00000000       0.00000000    -839.92382812
Zr       0.00000000       0.00000000       0.93434343       0.00000000       0.00000000     839.92382812
2
Properties=species:S:1:pos:R:3:forces:R:3 energy=61.87009286927339 pbc="F F F"
Zr       0.00000000       0.00000000       0.00000000       0.00000000       0.00000000       7.78693199
Zr       0.00000000       0.00000000       0.99393939       0.00000000       0.00000000      -7.78693199
2
Properties=species:S:1:pos:R:3:forces:R:3 energy=69.36570649961205 pbc="F F F"
Zr       0.00000000       0.00000000       0.00000000       0.00000000       0.00000000     138.76934814
Zr       0.00000000       0.00000000       1.05353535       0.00000000       0.00000000    -138.76934814
2
Properties=species:S:1:pos:R:3:forces:R:3 energy=74.37244395823966 pbc="F F F"
Zr       0.00000000       0.00000000       0.00000000       0.00000000       0.00000000       7.38126564
Zr       0.00000000       0.00000000       1.11313131       0.00000000       0.00000000      -7.38126564
2
Properties=species:S:1:pos:R:3:forces:R:3 energy=70.29447247113436 pbc="F F F"
Zr       0.00000000       0.00000000       0.00000000       0.00000000       0.00000000    -133.79512024
Zr       0.00000000       0.00000000       1.17272727       0.00000000       0.00000000     133.79512024
2
Properties=species:S:1:pos:R:3:forces:R:3 energy=59.93477060460628 pbc="F F F"
Zr       0.00000000       0.00000000       0.00000000       0.00000000       0.00000000    -201.32025146
Zr       0.00000000       0.00000000       1.23232323       0.00000000       0.00000000     201.32025146
2
Properties=species:S:1:pos:R:3:forces:R:3 energy=47.44728054283747 pbc="F F F"
Zr       0.00000000       0.00000000       0.00000000       0.00000000       0.00000000    -211.39321899
Zr       0.00000000       0.00000000       1.29191919       0.00000000       0.00000000     211.39321899
2
Properties=species:S:1:pos:R:3:forces:R:3 energy=35.24830408281494 pbc="F F F"
Zr       0.00000000       0.00000000       0.00000000       0.00000000       0.00000000    -194.92500305
Zr       0.00000000       0.00000000       1.35151515       0.00000000       0.00000000     194.92500305
2
Properties=species:S:1:pos:R:3:forces:R:3 energy=24.498079572893264 pbc="F F F"
Zr       0.00000000       0.00000000       0.00000000       0.00000000       0.00000000    -164.18936157
Zr       0.00000000       0.00000000       1.41111111       0.00000000       0.00000000     164.18936157
2
Properties=species:S:1:pos:R:3:forces:R:3 energy=15.771882541920982 pbc="F F F"
Zr       0.00000000       0.00000000       0.00000000       0.00000000       0.00000000    -128.71232605
Zr       0.00000000       0.00000000       1.47070707       0.00000000       0.00000000     128.71232605
2
Properties=species:S:1:pos:R:3:forces:R:3 energy=9.080039495773379 pbc="F F F"
Zr       0.00000000       0.00000000       0.00000000       0.00000000       0.00000000     -96.86311340
Zr       0.00000000       0.00000000       1.53030303       0.00000000       0.00000000      96.86311340
2
Properties=species:S:1:pos:R:3:forces:R:3 energy=4.09767426539347 pbc="F F F"
Zr       0.00000000       0.00000000       0.00000000       0.00000000       0.00000000     -71.39434814
Zr       0.00000000       0.00000000       1.58989899       0.00000000       0.00000000      71.39434814
2
Properties=species:S:1:pos:R:3:forces:R:3 energy=0.4546388082501439 pbc="F F F"
Zr       0.00000000       0.00000000       0.00000000       0.00000000       0.00000000     -51.77016068
Zr       0.00000000       0.00000000       1.64949495       0.00000000       0.00000000      51.77016068
2
Properties=species:S:1:pos:R:3:forces:R:3 energy=-2.177281330973012 pbc="F F F"
Zr       0.00000000       0.00000000       0.00000000       0.00000000       0.00000000     -37.39541245
Zr       0.00000000       0.00000000       1.70909091       0.00000000       0.00000000      37.39541245
2
Properties=species:S:1:pos:R:3:forces:R:3 energy=-4.092734596843729 pbc="F F F"
Zr       0.00000000       0.00000000       0.00000000       0.00000000       0.00000000     -27.52081871
Zr       0.00000000       0.00000000       1.76868687       0.00000000       0.00000000      27.52081871
2
Properties=species:S:1:pos:R:3:forces:R:3 energy=-5.5155548370734415 pbc="F F F"
Zr       0.00000000       0.00000000       0.00000000       0.00000000       0.00000000     -20.57477951
Zr       0.00000000       0.00000000       1.82828283       0.00000000       0.00000000      20.57477951
2
Properties=species:S:1:pos:R:3:forces:R:3 energy=-6.574203610662354 pbc="F F F"
Zr       0.00000000       0.00000000       0.00000000       0.00000000       0.00000000     -15.12384987
Zr       0.00000000       0.00000000       1.88787879       0.00000000       0.00000000      15.12384987
2
Properties=species:S:1:pos:R:3:forces:R:3 energy=-7.334326346246073 pbc="F F F"
Zr       0.00000000       0.00000000       0.00000000       0.00000000       0.00000000     -10.50293732
Zr       0.00000000       0.00000000       1.94747475       0.00000000       0.00000000      10.50293732
2
Properties=species:S:1:pos:R:3:forces:R:3 energy=-7.839933028780072 pbc="F F F"
Zr       0.00000000       0.00000000       0.00000000       0.00000000       0.00000000      -6.58654451
Zr       0.00000000       0.00000000       2.00707071       0.00000000       0.00000000       6.58654451
2
Properties=species:S:1:pos:R:3:forces:R:3 energy=-8.135064046756355 pbc="F F F"
Zr       0.00000000       0.00000000       0.00000000       0.00000000       0.00000000      -3.45934010
Zr       0.00000000       0.00000000       2.06666667       0.00000000       0.00000000       3.45934010
2
Properties=species:S:1:pos:R:3:forces:R:3 energy=-8.270034195728247 pbc="F F F"
Zr       0.00000000       0.00000000       0.00000000       0.00000000       0.00000000      -1.22356486
Zr       0.00000000       0.00000000       2.12626263       0.00000000       0.00000000       1.22356486
2
Properties=species:S:1:pos:R:3:forces:R:3 energy=-8.298710026836075 pbc="F F F"
Zr       0.00000000       0.00000000       0.00000000       0.00000000       0.00000000       0.12265262
Zr       0.00000000       0.00000000       2.18585859       0.00000000       0.00000000      -0.12265262
2
Properties=species:S:1:pos:R:3:forces:R:3 energy=-8.26945751951068 pbc="F F F"
Zr       0.00000000       0.00000000       0.00000000       0.00000000       0.00000000       0.76657993
Zr       0.00000000       0.00000000       2.24545455       0.00000000       0.00000000      -0.76657993
2
Properties=species:S:1:pos:R:3:forces:R:3 energy=-8.215180639464325 pbc="F F F"
Zr       0.00000000       0.00000000       0.00000000       0.00000000       0.00000000       1.01349831
Zr       0.00000000       0.00000000       2.30505051       0.00000000       0.00000000      -1.01349831
2
Properties=species:S:1:pos:R:3:forces:R:3 energy=-8.151427550574557 pbc="F F F"
Zr       0.00000000       0.00000000       0.00000000       0.00000000       0.00000000       1.11617780
Zr       0.00000000       0.00000000       2.36464646       0.00000000       0.00000000      -1.11617780
2
Properties=species:S:1:pos:R:3:forces:R:3 energy=-8.08241664514308 pbc="F F F"
Zr       0.00000000       0.00000000       0.00000000       0.00000000       0.00000000       1.20203733
Zr       0.00000000       0.00000000       2.42424242       0.00000000       0.00000000      -1.20203733
2
Properties=species:S:1:pos:R:3:forces:R:3 energy=-8.007676211228228 pbc="F F F"
Zr       0.00000000       0.00000000       0.00000000       0.00000000       0.00000000       1.31088006
Zr       0.00000000       0.00000000       2.48383838       0.00000000       0.00000000      -1.31088006
2
Properties=species:S:1:pos:R:3:forces:R:3 energy=-7.925656222036715 pbc="F F F"
Zr       0.00000000       0.00000000       0.00000000       0.00000000       0.00000000       1.44526052
Zr       0.00000000       0.00000000       2.54343434       0.00000000       0.00000000      -1.44526052
2
Properties=species:S:1:pos:R:3:forces:R:3 energy=-7.835090054151045 pbc="F F F"
Zr       0.00000000       0.00000000       0.00000000       0.00000000       0.00000000       1.59579194
Zr       0.00000000       0.00000000       2.60303030       0.00000000       0.00000000      -1.59579194
2
Properties=species:S:1:pos:R:3:forces:R:3 energy=-7.735374085937771 pbc="F F F"
Zr       0.00000000       0.00000000       0.00000000       0.00000000       0.00000000       1.75022209
Zr       0.00000000       0.00000000       2.66262626       0.00000000       0.00000000      -1.75022209
2
Properties=species:S:1:pos:R:3:forces:R:3 energy=-7.626638547575859 pbc="F F F"
Zr       0.00000000       0.00000000       0.00000000       0.00000000       0.00000000       1.89655507
Zr       0.00000000       0.00000000       2.72222222       0.00000000       0.00000000      -1.89655507
2
Properties=species:S:1:pos:R:3:forces:R:3 energy=-7.5096989303846335 pbc="F F F"
Zr       0.00000000       0.00000000       0.00000000       0.00000000       0.00000000       2.02385187
Zr       0.00000000       0.00000000       2.78181818       0.00000000       0.00000000      -2.02385187
2
Properties=species:S:1:pos:R:3:forces:R:3 energy=-7.385989280691819 pbc="F F F"
Zr       0.00000000       0.00000000       0.00000000       0.00000000       0.00000000       2.12214804
Zr       0.00000000       0.00000000       2.84141414       0.00000000       0.00000000      -2.12214804
2
Properties=species:S:1:pos:R:3:forces:R:3 energy=-7.257509378680273 pbc="F F F"
Zr       0.00000000       0.00000000       0.00000000       0.00000000       0.00000000       2.18268347
Zr       0.00000000       0.00000000       2.90101010       0.00000000       0.00000000      -2.18268347
2
Properties=species:S:1:pos:R:3:forces:R:3 energy=-7.126713397329248 pbc="F F F"
Zr       0.00000000       0.00000000       0.00000000       0.00000000       0.00000000       2.19893050
Zr       0.00000000       0.00000000       2.96060606       0.00000000       0.00000000      -2.19893050
2
Properties=species:S:1:pos:R:3:forces:R:3 energy=-6.996350206061544 pbc="F F F"
Zr       0.00000000       0.00000000       0.00000000       0.00000000       0.00000000       2.16818213
Zr       0.00000000       0.00000000       3.02020202       0.00000000       0.00000000      -2.16818213
2
Properties=species:S:1:pos:R:3:forces:R:3 energy=-6.869168392276263 pbc="F F F"
Zr       0.00000000       0.00000000       0.00000000       0.00000000       0.00000000       2.09309387
Zr       0.00000000       0.00000000       3.07979798       0.00000000       0.00000000      -2.09309387
2
Properties=species:S:1:pos:R:3:forces:R:3 energy=-6.747571453104518 pbc="F F F"
Zr       0.00000000       0.00000000       0.00000000       0.00000000       0.00000000       1.98290861
Zr       0.00000000       0.00000000       3.13939394       0.00000000       0.00000000      -1.98290861
2
Properties=species:S:1:pos:R:3:forces:R:3 energy=-6.633191621362743 pbc="F F F"
Zr       0.00000000       0.00000000       0.00000000       0.00000000       0.00000000       1.85433531
Zr       0.00000000       0.00000000       3.19898990       0.00000000       0.00000000      -1.85433531
2
Properties=species:S:1:pos:R:3:forces:R:3 energy=-6.526448387002335 pbc="F F F"
Zr       0.00000000       0.00000000       0.00000000       0.00000000       0.00000000       1.73095489
Zr       0.00000000       0.00000000       3.25858586       0.00000000       0.00000000      -1.73095489
2
Properties=species:S:1:pos:R:3:forces:R:3 energy=-6.426286608450208 pbc="F F F"
Zr       0.00000000       0.00000000       0.00000000       0.00000000       0.00000000       1.63677502
Zr       0.00000000       0.00000000       3.31818182       0.00000000       0.00000000      -1.63677502
2
Properties=species:S:1:pos:R:3:forces:R:3 energy=-6.3305639635312065 pbc="F F F"
Zr       0.00000000       0.00000000       0.00000000       0.00000000       0.00000000       1.58176291
Zr       0.00000000       0.00000000       3.37777778       0.00000000       0.00000000      -1.58176291
2
Properties=species:S:1:pos:R:3:forces:R:3 energy=-6.237198846705595 pbc="F F F"
Zr       0.00000000       0.00000000       0.00000000       0.00000000       0.00000000       1.55437946
Zr       0.00000000       0.00000000       3.43737374       0.00000000       0.00000000      -1.55437946
2
Properties=species:S:1:pos:R:3:forces:R:3 energy=-6.145136513818774 pbc="F F F"
Zr       0.00000000       0.00000000       0.00000000       0.00000000       0.00000000       1.53521931
Zr       0.00000000       0.00000000       3.49696970       0.00000000       0.00000000      -1.53521931
2
Properties=species:S:1:pos:R:3:forces:R:3 energy=-6.054289963784385 pbc="F F F"
Zr       0.00000000       0.00000000       0.00000000       0.00000000       0.00000000       1.51244235
Zr       0.00000000       0.00000000       3.55656566       0.00000000       0.00000000      -1.51244235
2
Properties=species:S:1:pos:R:3:forces:R:3 energy=-5.965021621872074 pbc="F F F"
Zr       0.00000000       0.00000000       0.00000000       0.00000000       0.00000000       1.48190844
Zr       0.00000000       0.00000000       3.61616162       0.00000000       0.00000000      -1.48190844
2
Properties=species:S:1:pos:R:3:forces:R:3 energy=-5.877849083650803 pbc="F F F"
Zr       0.00000000       0.00000000       0.00000000       0.00000000       0.00000000       1.44183946
Zr       0.00000000       0.00000000       3.67575758       0.00000000       0.00000000      -1.44183946
2
Properties=species:S:1:pos:R:3:forces:R:3 energy=-5.793379597080727 pbc="F F F"
Zr       0.00000000       0.00000000       0.00000000       0.00000000       0.00000000       1.39107776
Zr       0.00000000       0.00000000       3.73535354       0.00000000       0.00000000      -1.39107776
2
Properties=species:S:1:pos:R:3:forces:R:3 energy=-5.712253340985577 pbc="F F F"
Zr       0.00000000       0.00000000       0.00000000       0.00000000       0.00000000       1.32982385
Zr       0.00000000       0.00000000       3.79494949       0.00000000       0.00000000      -1.32982385
2
Properties=species:S:1:pos:R:3:forces:R:3 energy=-5.635043837965223 pbc="F F F"
Zr       0.00000000       0.00000000       0.00000000       0.00000000       0.00000000       1.26013112
Zr       0.00000000       0.00000000       3.85454545       0.00000000       0.00000000      -1.26013112
2
Properties=species:S:1:pos:R:3:forces:R:3 energy=-5.562154711060419 pbc="F F F"
Zr       0.00000000       0.00000000       0.00000000       0.00000000       0.00000000       1.18549442
Zr       0.00000000       0.00000000       3.91414141       0.00000000       0.00000000      -1.18549442
2
Properties=species:S:1:pos:R:3:forces:R:3 energy=-5.49376191452668 pbc="F F F"
Zr       0.00000000       0.00000000       0.00000000       0.00000000       0.00000000       1.10985076
Zr       0.00000000       0.00000000       3.97373737       0.00000000       0.00000000      -1.10985076
2
Properties=species:S:1:pos:R:3:forces:R:3 energy=-5.429820042791858 pbc="F F F"
Zr       0.00000000       0.00000000       0.00000000       0.00000000       0.00000000       1.03665197
Zr       0.00000000       0.00000000       4.03333333       0.00000000       0.00000000      -1.03665197
2
Properties=species:S:1:pos:R:3:forces:R:3 energy=-5.3701035171939315 pbc="F F F"
Zr       0.00000000       0.00000000       0.00000000       0.00000000       0.00000000       0.96833259
Zr       0.00000000       0.00000000       4.09292929       0.00000000       0.00000000      -0.96833259
2
Properties=species:S:1:pos:R:3:forces:R:3 energy=-5.314278306295864 pbc="F F F"
Zr       0.00000000       0.00000000       0.00000000       0.00000000       0.00000000       0.90621376
Zr       0.00000000       0.00000000       4.15252525       0.00000000       0.00000000      -0.90621376
2
Properties=species:S:1:pos:R:3:forces:R:3 energy=-5.261959387099082 pbc="F F F"
Zr       0.00000000       0.00000000       0.00000000       0.00000000       0.00000000       0.85069424
Zr       0.00000000       0.00000000       4.21212121       0.00000000       0.00000000      -0.85069424
2
Properties=species:S:1:pos:R:3:forces:R:3 energy=-5.212756196628957 pbc="F F F"
Zr       0.00000000       0.00000000       0.00000000       0.00000000       0.00000000       0.80150956
Zr       0.00000000       0.00000000       4.27171717       0.00000000       0.00000000      -0.80150956
2
Properties=species:S:1:pos:R:3:forces:R:3 energy=-5.166313728629441 pbc="F F F"
Zr       0.00000000       0.00000000       0.00000000       0.00000000       0.00000000       0.75795990
Zr       0.00000000       0.00000000       4.33131313       0.00000000       0.00000000      -0.75795990
2
Properties=species:S:1:pos:R:3:forces:R:3 energy=-5.12232107861804 pbc="F F F"
Zr       0.00000000       0.00000000       0.00000000       0.00000000       0.00000000       0.71907526
Zr       0.00000000       0.00000000       4.39090909       0.00000000       0.00000000      -0.71907526
2
Properties=species:S:1:pos:R:3:forces:R:3 energy=-5.080534496796167 pbc="F F F"
Zr       0.00000000       0.00000000       0.00000000       0.00000000       0.00000000       0.68372858
Zr       0.00000000       0.00000000       4.45050505       0.00000000       0.00000000      -0.68372858
2
Properties=species:S:1:pos:R:3:forces:R:3 energy=-5.040779784906213 pbc="F F F"
Zr       0.00000000       0.00000000       0.00000000       0.00000000       0.00000000       0.65073329
Zr       0.00000000       0.00000000       4.51010101       0.00000000       0.00000000      -0.65073329
2
Properties=species:S:1:pos:R:3:forces:R:3 energy=-5.002949264146209 pbc="F F F"
Zr       0.00000000       0.00000000       0.00000000       0.00000000       0.00000000       0.61891335
Zr       0.00000000       0.00000000       4.56969697       0.00000000       0.00000000      -0.61891335
2
Properties=species:S:1:pos:R:3:forces:R:3 energy=-4.967007229454826 pbc="F F F"
Zr       0.00000000       0.00000000       0.00000000       0.00000000       0.00000000       0.58721006
Zr       0.00000000       0.00000000       4.62929293       0.00000000       0.00000000      -0.58721006
2
Properties=species:S:1:pos:R:3:forces:R:3 energy=-4.932974506988627 pbc="F F F"
Zr       0.00000000       0.00000000       0.00000000       0.00000000       0.00000000       0.55474681
Zr       0.00000000       0.00000000       4.68888889       0.00000000       0.00000000      -0.55474681
2
Properties=species:S:1:pos:R:3:forces:R:3 energy=-4.900913691177093 pbc="F F F"
Zr       0.00000000       0.00000000       0.00000000       0.00000000       0.00000000       0.52089715
Zr       0.00000000       0.00000000       4.74848485       0.00000000       0.00000000      -0.52089715
2
Properties=species:S:1:pos:R:3:forces:R:3 energy=-4.8709217260681985 pbc="F F F"
Zr       0.00000000       0.00000000       0.00000000       0.00000000       0.00000000       0.48535371
Zr       0.00000000       0.00000000       4.80808081       0.00000000       0.00000000      -0.48535371
2
Properties=species:S:1:pos:R:3:forces:R:3 energy=-4.843095769457983 pbc="F F F"
Zr       0.00000000       0.00000000       0.00000000       0.00000000       0.00000000       0.44819996
Zr       0.00000000       0.00000000       4.86767677       0.00000000       0.00000000      -0.44819996
2
Properties=species:S:1:pos:R:3:forces:R:3 energy=-4.817519480318403 pbc="F F F"
Zr       0.00000000       0.00000000       0.00000000       0.00000000       0.00000000       0.41000876
Zr       0.00000000       0.00000000       4.92727273       0.00000000       0.00000000      -0.41000876
2
Properties=species:S:1:pos:R:3:forces:R:3 energy=-4.794224394987515 pbc="F F F"
Zr       0.00000000       0.00000000       0.00000000       0.00000000       0.00000000       0.37191400
Zr       0.00000000       0.00000000       4.98686869       0.00000000       0.00000000      -0.37191400
2
Properties=species:S:1:pos:R:3:forces:R:3 energy=-4.773157381865481 pbc="F F F"
Zr       0.00000000       0.00000000       0.00000000       0.00000000       0.00000000       0.33560401
Zr       0.00000000       0.00000000       5.04646465       0.00000000       0.00000000      -0.33560401
2
Properties=species:S:1:pos:R:3:forces:R:3 energy=-4.754150760728536 pbc="F F F"
Zr       0.00000000       0.00000000       0.00000000       0.00000000       0.00000000       0.30301642
Zr       0.00000000       0.00000000       5.10606061       0.00000000       0.00000000      -0.30301642
2
Properties=species:S:1:pos:R:3:forces:R:3 energy=-4.736931476676601 pbc="F F F"
Zr       0.00000000       0.00000000       0.00000000       0.00000000       0.00000000       0.27574009
Zr       0.00000000       0.00000000       5.16565657       0.00000000       0.00000000      -0.27574009
2
Properties=species:S:1:pos:R:3:forces:R:3 energy=-4.7211704314363105 pbc="F F F"
Zr       0.00000000       0.00000000       0.00000000       0.00000000       0.00000000       0.25407559
Zr       0.00000000       0.00000000       5.22525253       0.00000000       0.00000000      -0.25407559
2
Properties=species:S:1:pos:R:3:forces:R:3 energy=-4.706571983026946 pbc="F F F"
Zr       0.00000000       0.00000000       0.00000000       0.00000000       0.00000000       0.23621973
Zr       0.00000000       0.00000000       5.28484848       0.00000000       0.00000000      -0.23621973
2
Properties=species:S:1:pos:R:3:forces:R:3 energy=-4.693007460164726 pbc="F F F"
Zr       0.00000000       0.00000000       0.00000000       0.00000000       0.00000000       0.21879257
Zr       0.00000000       0.00000000       5.34444444       0.00000000       0.00000000      -0.21879257
2
Properties=species:S:1:pos:R:3:forces:R:3 energy=-4.680513058509198 pbc="F F F"
Zr       0.00000000       0.00000000       0.00000000       0.00000000       0.00000000       0.20061466
Zr       0.00000000       0.00000000       5.40404040       0.00000000       0.00000000      -0.20061466
2
Properties=species:S:1:pos:R:3:forces:R:3 energy=-4.669008993080531 pbc="F F F"
Zr       0.00000000       0.00000000       0.00000000       0.00000000       0.00000000       0.18659490
Zr       0.00000000       0.00000000       5.46363636       0.00000000       0.00000000      -0.18659490
2
Properties=species:S:1:pos:R:3:forces:R:3 energy=-4.658167309828558 pbc="F F F"
Zr       0.00000000       0.00000000       0.00000000       0.00000000       0.00000000       0.17740571
Zr       0.00000000       0.00000000       5.52323232       0.00000000       0.00000000      -0.17740571
2
Properties=species:S:1:pos:R:3:forces:R:3 energy=-4.64799462498961 pbc="F F F"
Zr       0.00000000       0.00000000       0.00000000       0.00000000       0.00000000       0.16233028
Zr       0.00000000       0.00000000       5.58282828       0.00000000       0.00000000      -0.16233028
2
Properties=species:S:1:pos:R:3:forces:R:3 energy=-4.638952129659274 pbc="F F F"
Zr       0.00000000       0.00000000       0.00000000       0.00000000       0.00000000       0.14096487
Zr       0.00000000       0.00000000       5.64242424       0.00000000       0.00000000      -0.14096487
2
Properties=species:S:1:pos:R:3:forces:R:3 energy=-4.631072153090247 pbc="F F F"
Zr       0.00000000       0.00000000       0.00000000       0.00000000       0.00000000       0.12548457
Zr       0.00000000       0.00000000       5.70202020       0.00000000       0.00000000      -0.12548457
2
Properties=species:S:1:pos:R:3:forces:R:3 energy=-4.623714473561906 pbc="F F F"
Zr       0.00000000       0.00000000       0.00000000       0.00000000       0.00000000       0.12305363
Zr       0.00000000       0.00000000       5.76161616       0.00000000       0.00000000      -0.12305363
2
Properties=species:S:1:pos:R:3:forces:R:3 energy=-4.616551874262058 pbc="F F F"
Zr       0.00000000       0.00000000       0.00000000       0.00000000       0.00000000       0.11342515
Zr       0.00000000       0.00000000       5.82121212       0.00000000       0.00000000      -0.11342515
2
Properties=species:S:1:pos:R:3:forces:R:3 energy=-4.610710940509975 pbc="F F F"
Zr       0.00000000       0.00000000       0.00000000       0.00000000       0.00000000       0.08010715
Zr       0.00000000       0.00000000       5.88080808       0.00000000       0.00000000      -0.08010715
2
Properties=species:S:1:pos:R:3:forces:R:3 energy=-4.607056279283937 pbc="F F F"
Zr       0.00000000       0.00000000       0.00000000       0.00000000       0.00000000       0.04367809
Zr       0.00000000       0.00000000       5.94040404       0.00000000       0.00000000      -0.04367809
2
Properties=species:S:1:pos:R:3:forces:R:3 energy=-4.6050610630558495 pbc="F F F"
Zr       0.00000000       0.00000000       0.00000000       0.00000000       0.00000000       0.02814879
Zr       0.00000000       0.00000000       6.00000000       0.00000000       0.00000000      -0.02814879
